* NGSPICE file created from spm.ext - technology: sky130A

* Black-box entry subcircuit for sky130_fd_sc_hd__decap_8 abstract view
.subckt sky130_fd_sc_hd__decap_8 VGND VNB VPB VPWR
.ends

* Black-box entry subcircuit for sky130_fd_sc_hd__decap_4 abstract view
.subckt sky130_fd_sc_hd__decap_4 VGND VNB VPB VPWR
.ends

* Black-box entry subcircuit for sky130_fd_sc_hd__clkbuf_1 abstract view
.subckt sky130_fd_sc_hd__clkbuf_1 A VGND VNB VPB VPWR X
.ends

* Black-box entry subcircuit for sky130_fd_sc_hd__a22o_1 abstract view
.subckt sky130_fd_sc_hd__a22o_1 A1 A2 B1 B2 VGND VNB VPB VPWR X
.ends

* Black-box entry subcircuit for sky130_fd_sc_hd__fill_1 abstract view
.subckt sky130_fd_sc_hd__fill_1 VGND VNB VPB VPWR
.ends

* Black-box entry subcircuit for sky130_fd_sc_hd__dfrtp_1 abstract view
.subckt sky130_fd_sc_hd__dfrtp_1 CLK D RESET_B VGND VNB VPB VPWR Q
.ends

* Black-box entry subcircuit for sky130_fd_sc_hd__and2_1 abstract view
.subckt sky130_fd_sc_hd__and2_1 A B VGND VNB VPB VPWR X
.ends

* Black-box entry subcircuit for sky130_fd_sc_hd__o2bb2a_1 abstract view
.subckt sky130_fd_sc_hd__o2bb2a_1 A1_N A2_N B1 B2 VGND VNB VPB VPWR X
.ends

* Black-box entry subcircuit for sky130_fd_sc_hd__fill_2 abstract view
.subckt sky130_fd_sc_hd__fill_2 VGND VNB VPB VPWR
.ends

* Black-box entry subcircuit for sky130_fd_sc_hd__decap_12 abstract view
.subckt sky130_fd_sc_hd__decap_12 VGND VNB VPB VPWR
.ends

* Black-box entry subcircuit for sky130_fd_sc_hd__decap_6 abstract view
.subckt sky130_fd_sc_hd__decap_6 VGND VNB VPB VPWR
.ends

* Black-box entry subcircuit for sky130_fd_sc_hd__buf_1 abstract view
.subckt sky130_fd_sc_hd__buf_1 A VGND VNB VPB VPWR X
.ends

* Black-box entry subcircuit for sky130_fd_sc_hd__inv_2 abstract view
.subckt sky130_fd_sc_hd__inv_2 A VGND VNB VPB VPWR Y
.ends

* Black-box entry subcircuit for sky130_fd_sc_hd__tapvpwrvgnd_1 abstract view
.subckt sky130_fd_sc_hd__tapvpwrvgnd_1 VGND VPWR
.ends

* Black-box entry subcircuit for sky130_fd_sc_hd__clkbuf_2 abstract view
.subckt sky130_fd_sc_hd__clkbuf_2 A VGND VNB VPB VPWR X
.ends

* Black-box entry subcircuit for sky130_fd_sc_hd__a31oi_1 abstract view
.subckt sky130_fd_sc_hd__a31oi_1 A1 A2 A3 B1 VGND VNB VPB VPWR Y
.ends

* Black-box entry subcircuit for sky130_fd_sc_hd__decap_3 abstract view
.subckt sky130_fd_sc_hd__decap_3 VGND VNB VPB VPWR
.ends

* Black-box entry subcircuit for sky130_fd_sc_hd__a21oi_2 abstract view
.subckt sky130_fd_sc_hd__a21oi_2 A1 A2 B1 VGND VNB VPB VPWR Y
.ends

* Black-box entry subcircuit for sky130_fd_sc_hd__clkbuf_16 abstract view
.subckt sky130_fd_sc_hd__clkbuf_16 A VGND VNB VPB VPWR X
.ends

* Black-box entry subcircuit for sky130_fd_sc_hd__dlymetal6s2s_1 abstract view
.subckt sky130_fd_sc_hd__dlymetal6s2s_1 A VGND VNB VPB VPWR X
.ends

.subckt spm clk p rst x[0] x[10] x[11] x[12] x[13] x[14] x[15] x[16] x[17] x[18] x[19]
+ x[1] x[20] x[21] x[22] x[23] x[24] x[25] x[26] x[27] x[28] x[29] x[2] x[30] x[31]
+ x[3] x[4] x[5] x[6] x[7] x[8] x[9] y VPWR VGND
XFILLER_22_166 VGND VGND VPWR VPWR sky130_fd_sc_hd__decap_8
XFILLER_22_144 VGND VGND VPWR VPWR sky130_fd_sc_hd__decap_4
XFILLER_26_30 VGND VGND VPWR VPWR sky130_fd_sc_hd__decap_8
X_294_ _298_/A VGND VGND VPWR VPWR _294_/X sky130_fd_sc_hd__clkbuf_1
X_432_ _507_/Q _510_/Q _430_/X _431_/X VGND VGND VPWR VPWR _507_/D sky130_fd_sc_hd__a22o_1
XFILLER_3_45 VGND VGND VPWR VPWR sky130_fd_sc_hd__decap_4
XFILLER_3_56 VGND VGND VPWR VPWR sky130_fd_sc_hd__fill_1
XFILLER_3_78 VGND VGND VPWR VPWR sky130_fd_sc_hd__decap_4
X_501_ _512_/CLK _501_/D _264_/X VGND VGND VPWR VPWR _501_/Q sky130_fd_sc_hd__dfrtp_1
XFILLER_9_115 VGND VGND VPWR VPWR sky130_fd_sc_hd__decap_4
X_363_ _375_/A _363_/B VGND VGND VPWR VPWR _363_/X sky130_fd_sc_hd__and2_1
XFILLER_12_87 VGND VGND VPWR VPWR sky130_fd_sc_hd__decap_4
XFILLER_12_54 VGND VGND VPWR VPWR sky130_fd_sc_hd__decap_4
X_346_ _354_/A _346_/B VGND VGND VPWR VPWR _346_/X sky130_fd_sc_hd__and2_1
X_415_ _499_/Q _502_/Q _413_/X _414_/X VGND VGND VPWR VPWR _499_/D sky130_fd_sc_hd__a22o_1
XFILLER_6_107 VGND VGND VPWR VPWR sky130_fd_sc_hd__decap_4
XFILLER_10_114 VGND VGND VPWR VPWR sky130_fd_sc_hd__decap_4
X_277_ _279_/A VGND VGND VPWR VPWR _277_/X sky130_fd_sc_hd__clkbuf_1
XFILLER_23_53 VGND VGND VPWR VPWR sky130_fd_sc_hd__decap_4
X_329_ _459_/Q _462_/Q _459_/Q _462_/Q VGND VGND VPWR VPWR _329_/X sky130_fd_sc_hd__o2bb2a_1
Xclkbuf_3_1_0_clk clkbuf_3_1_0_clk/A VGND VGND VPWR VPWR _518_/CLK sky130_fd_sc_hd__clkbuf_1
XFILLER_29_117 VGND VGND VPWR VPWR sky130_fd_sc_hd__decap_4
XFILLER_29_106 VGND VGND VPWR VPWR sky130_fd_sc_hd__fill_1
XFILLER_29_85 VGND VGND VPWR VPWR sky130_fd_sc_hd__fill_2
XFILLER_29_30 VGND VGND VPWR VPWR sky130_fd_sc_hd__decap_8
XFILLER_20_87 VGND VGND VPWR VPWR sky130_fd_sc_hd__decap_4
XFILLER_19_172 VGND VGND VPWR VPWR sky130_fd_sc_hd__fill_2
XFILLER_13_3 VGND VGND VPWR VPWR sky130_fd_sc_hd__decap_12
XFILLER_25_164 VGND VGND VPWR VPWR sky130_fd_sc_hd__decap_6
XFILLER_16_131 VGND VGND VPWR VPWR sky130_fd_sc_hd__decap_4
XFILLER_22_156 VGND VGND VPWR VPWR sky130_fd_sc_hd__decap_4
X_293_ _305_/A VGND VGND VPWR VPWR _298_/A sky130_fd_sc_hd__buf_1
X_362_ _359_/X _360_/X _359_/X _360_/X VGND VGND VPWR VPWR _474_/D sky130_fd_sc_hd__o2bb2a_1
X_500_ _512_/CLK _500_/D _265_/X VGND VGND VPWR VPWR _500_/Q sky130_fd_sc_hd__dfrtp_1
X_431_ _507_/Q _510_/Q _507_/Q _510_/Q VGND VGND VPWR VPWR _431_/X sky130_fd_sc_hd__o2bb2a_1
XFILLER_9_149 VGND VGND VPWR VPWR sky130_fd_sc_hd__decap_8
XFILLER_12_99 VGND VGND VPWR VPWR sky130_fd_sc_hd__decap_4
XFILLER_12_11 VGND VGND VPWR VPWR sky130_fd_sc_hd__decap_4
XFILLER_6_119 VGND VGND VPWR VPWR sky130_fd_sc_hd__decap_4
XFILLER_10_126 VGND VGND VPWR VPWR sky130_fd_sc_hd__decap_8
X_345_ _342_/X _343_/X _342_/X _343_/X VGND VGND VPWR VPWR _466_/D sky130_fd_sc_hd__o2bb2a_1
X_276_ _279_/A VGND VGND VPWR VPWR _276_/X sky130_fd_sc_hd__clkbuf_1
X_414_ _499_/Q _502_/Q _499_/Q _502_/Q VGND VGND VPWR VPWR _414_/X sky130_fd_sc_hd__o2bb2a_1
XFILLER_5_163 VGND VGND VPWR VPWR sky130_fd_sc_hd__decap_8
XFILLER_23_32 VGND VGND VPWR VPWR sky130_fd_sc_hd__decap_4
X_328_ _332_/A _328_/B VGND VGND VPWR VPWR _328_/X sky130_fd_sc_hd__and2_1
XFILLER_0_25 VGND VGND VPWR VPWR sky130_fd_sc_hd__decap_4
XFILLER_2_144 VGND VGND VPWR VPWR sky130_fd_sc_hd__decap_6
X_259_ _261_/A VGND VGND VPWR VPWR _259_/X sky130_fd_sc_hd__clkbuf_1
XFILLER_18_98 VGND VGND VPWR VPWR sky130_fd_sc_hd__decap_4
XFILLER_18_87 VGND VGND VPWR VPWR sky130_fd_sc_hd__decap_4
XFILLER_29_129 VGND VGND VPWR VPWR sky130_fd_sc_hd__decap_4
XFILLER_20_99 VGND VGND VPWR VPWR sky130_fd_sc_hd__decap_4
XFILLER_20_55 VGND VGND VPWR VPWR sky130_fd_sc_hd__decap_8
Xclkbuf_3_0_0_clk clkbuf_3_1_0_clk/A VGND VGND VPWR VPWR _508_/CLK sky130_fd_sc_hd__clkbuf_1
XFILLER_15_66 VGND VGND VPWR VPWR sky130_fd_sc_hd__fill_2
XFILLER_15_88 VGND VGND VPWR VPWR sky130_fd_sc_hd__decap_4
XFILLER_22_135 VGND VGND VPWR VPWR sky130_fd_sc_hd__fill_1
XFILLER_22_102 VGND VGND VPWR VPWR sky130_fd_sc_hd__decap_6
XFILLER_26_87 VGND VGND VPWR VPWR sky130_fd_sc_hd__decap_8
X_361_ _473_/Q _476_/Q _359_/X _360_/X VGND VGND VPWR VPWR _473_/D sky130_fd_sc_hd__a22o_1
XFILLER_13_124 VGND VGND VPWR VPWR sky130_fd_sc_hd__decap_4
XFILLER_13_113 VGND VGND VPWR VPWR sky130_fd_sc_hd__fill_1
X_292_ _292_/A VGND VGND VPWR VPWR _292_/X sky130_fd_sc_hd__clkbuf_1
X_430_ _438_/A _430_/B VGND VGND VPWR VPWR _430_/X sky130_fd_sc_hd__and2_1
XFILLER_9_128 VGND VGND VPWR VPWR sky130_fd_sc_hd__fill_1
XFILLER_3_58 VGND VGND VPWR VPWR sky130_fd_sc_hd__decap_4
XFILLER_12_78 VGND VGND VPWR VPWR sky130_fd_sc_hd__decap_8
XFILLER_12_23 VGND VGND VPWR VPWR sky130_fd_sc_hd__decap_6
X_275_ _279_/A VGND VGND VPWR VPWR _275_/X sky130_fd_sc_hd__clkbuf_1
X_344_ _465_/Q _468_/Q _342_/X _343_/X VGND VGND VPWR VPWR _465_/D sky130_fd_sc_hd__a22o_1
X_413_ _417_/A _413_/B VGND VGND VPWR VPWR _413_/X sky130_fd_sc_hd__and2_1
XFILLER_0_59 VGND VGND VPWR VPWR sky130_fd_sc_hd__decap_4
XFILLER_2_134 VGND VGND VPWR VPWR sky130_fd_sc_hd__fill_1
XFILLER_3_3 VGND VGND VPWR VPWR sky130_fd_sc_hd__decap_12
X_327_ _327_/A VGND VGND VPWR VPWR _457_/D sky130_fd_sc_hd__inv_2
X_258_ _261_/A VGND VGND VPWR VPWR _258_/X sky130_fd_sc_hd__clkbuf_1
XFILLER_18_11 VGND VGND VPWR VPWR sky130_fd_sc_hd__decap_8
XFILLER_29_10 VGND VGND VPWR VPWR sky130_fd_sc_hd__decap_4
XFILLER_20_67 VGND VGND VPWR VPWR sky130_fd_sc_hd__decap_8
XFILLER_20_45 VGND VGND VPWR VPWR sky130_fd_sc_hd__decap_6
XFILLER_20_23 VGND VGND VPWR VPWR sky130_fd_sc_hd__decap_6
XFILLER_29_98 VGND VGND VPWR VPWR sky130_fd_sc_hd__decap_8
XFILLER_29_65 VGND VGND VPWR VPWR sky130_fd_sc_hd__fill_1
XFILLER_29_54 VGND VGND VPWR VPWR sky130_fd_sc_hd__decap_4
XFILLER_29_21 VGND VGND VPWR VPWR sky130_fd_sc_hd__fill_1
XFILLER_25_133 VGND VGND VPWR VPWR sky130_fd_sc_hd__decap_6
XFILLER_16_144 VGND VGND VPWR VPWR sky130_fd_sc_hd__decap_6
XFILLER_15_56 VGND VGND VPWR VPWR sky130_fd_sc_hd__fill_1
XPHY_150 VGND VPWR sky130_fd_sc_hd__tapvpwrvgnd_1
X_360_ _473_/Q _476_/Q _473_/Q _476_/Q VGND VGND VPWR VPWR _360_/X sky130_fd_sc_hd__o2bb2a_1
X_291_ _292_/A VGND VGND VPWR VPWR _291_/X sky130_fd_sc_hd__clkbuf_1
XFILLER_13_169 VGND VGND VPWR VPWR sky130_fd_sc_hd__fill_2
X_489_ _489_/CLK _489_/D _278_/X VGND VGND VPWR VPWR _489_/Q sky130_fd_sc_hd__dfrtp_1
XFILLER_3_15 VGND VGND VPWR VPWR sky130_fd_sc_hd__decap_8
XFILLER_3_26 VGND VGND VPWR VPWR sky130_fd_sc_hd__decap_4
XFILLER_10_139 VGND VGND VPWR VPWR sky130_fd_sc_hd__decap_4
X_274_ _274_/A VGND VGND VPWR VPWR _279_/A sky130_fd_sc_hd__clkbuf_2
X_343_ _465_/Q _468_/Q _465_/Q _468_/Q VGND VGND VPWR VPWR _343_/X sky130_fd_sc_hd__o2bb2a_1
X_412_ _409_/X _410_/X _409_/X _410_/X VGND VGND VPWR VPWR _498_/D sky130_fd_sc_hd__o2bb2a_1
XFILLER_5_110 VGND VGND VPWR VPWR sky130_fd_sc_hd__decap_4
XFILLER_29_3 VGND VGND VPWR VPWR sky130_fd_sc_hd__decap_4
X_326_ _332_/A _326_/A2 _457_/Q _327_/A VGND VGND VPWR VPWR _458_/D sky130_fd_sc_hd__a31oi_1
X_257_ _261_/A VGND VGND VPWR VPWR _257_/X sky130_fd_sc_hd__clkbuf_1
XFILLER_9_58 VGND VGND VPWR VPWR sky130_fd_sc_hd__decap_4
X_309_ _310_/A VGND VGND VPWR VPWR _309_/X sky130_fd_sc_hd__clkbuf_1
XFILLER_15_9 VGND VGND VPWR VPWR sky130_fd_sc_hd__fill_1
XFILLER_29_88 VGND VGND VPWR VPWR sky130_fd_sc_hd__decap_4
XFILLER_29_77 VGND VGND VPWR VPWR sky130_fd_sc_hd__decap_8
XFILLER_6_26 VGND VGND VPWR VPWR sky130_fd_sc_hd__decap_3
XFILLER_6_37 VGND VGND VPWR VPWR sky130_fd_sc_hd__decap_8
XFILLER_6_48 VGND VGND VPWR VPWR sky130_fd_sc_hd__decap_4
XFILLER_15_24 VGND VGND VPWR VPWR sky130_fd_sc_hd__decap_4
XPHY_151 VGND VPWR sky130_fd_sc_hd__tapvpwrvgnd_1
XPHY_140 VGND VPWR sky130_fd_sc_hd__tapvpwrvgnd_1
XFILLER_16_112 VGND VGND VPWR VPWR sky130_fd_sc_hd__decap_4
XFILLER_11_3 VGND VGND VPWR VPWR sky130_fd_sc_hd__fill_1
XFILLER_26_78 VGND VGND VPWR VPWR sky130_fd_sc_hd__decap_8
XFILLER_13_115 VGND VGND VPWR VPWR sky130_fd_sc_hd__decap_4
X_488_ _490_/CLK _488_/D _279_/X VGND VGND VPWR VPWR _488_/Q sky130_fd_sc_hd__dfrtp_1
XFILLER_21_170 VGND VGND VPWR VPWR sky130_fd_sc_hd__fill_1
X_290_ _292_/A VGND VGND VPWR VPWR _290_/X sky130_fd_sc_hd__clkbuf_1
XFILLER_12_170 VGND VGND VPWR VPWR sky130_fd_sc_hd__decap_4
X_342_ _354_/A _342_/B VGND VGND VPWR VPWR _342_/X sky130_fd_sc_hd__and2_1
X_411_ _497_/Q _500_/Q _409_/X _410_/X VGND VGND VPWR VPWR _497_/D sky130_fd_sc_hd__a22o_1
X_273_ _273_/A VGND VGND VPWR VPWR _273_/X sky130_fd_sc_hd__clkbuf_1
X_325_ _332_/A _326_/A2 _457_/Q VGND VGND VPWR VPWR _327_/A sky130_fd_sc_hd__a21oi_2
X_256_ _274_/A VGND VGND VPWR VPWR _261_/A sky130_fd_sc_hd__buf_1
XFILLER_18_57 VGND VGND VPWR VPWR sky130_fd_sc_hd__decap_4
X_308_ _310_/A VGND VGND VPWR VPWR _308_/X sky130_fd_sc_hd__clkbuf_1
XFILLER_19_143 VGND VGND VPWR VPWR sky130_fd_sc_hd__decap_4
XFILLER_19_110 VGND VGND VPWR VPWR sky130_fd_sc_hd__decap_4
Xoutput35 _456_/Q VGND VGND VPWR VPWR p sky130_fd_sc_hd__clkbuf_2
XFILLER_25_157 VGND VGND VPWR VPWR sky130_fd_sc_hd__decap_4
XFILLER_25_146 VGND VGND VPWR VPWR sky130_fd_sc_hd__decap_8
XFILLER_25_113 VGND VGND VPWR VPWR sky130_fd_sc_hd__fill_1
XFILLER_15_58 VGND VGND VPWR VPWR sky130_fd_sc_hd__decap_8
XPHY_152 VGND VPWR sky130_fd_sc_hd__tapvpwrvgnd_1
XPHY_141 VGND VPWR sky130_fd_sc_hd__tapvpwrvgnd_1
XPHY_130 VGND VPWR sky130_fd_sc_hd__tapvpwrvgnd_1
XFILLER_21_90 VGND VGND VPWR VPWR sky130_fd_sc_hd__decap_4
XFILLER_16_135 VGND VGND VPWR VPWR sky130_fd_sc_hd__fill_1
XFILLER_16_124 VGND VGND VPWR VPWR sky130_fd_sc_hd__decap_4
XFILLER_7_81 VGND VGND VPWR VPWR sky130_fd_sc_hd__decap_4
XFILLER_26_24 VGND VGND VPWR VPWR sky130_fd_sc_hd__decap_4
XFILLER_13_149 VGND VGND VPWR VPWR sky130_fd_sc_hd__decap_4
XFILLER_3_39 VGND VGND VPWR VPWR sky130_fd_sc_hd__fill_1
X_487_ _490_/CLK _487_/D _282_/X VGND VGND VPWR VPWR _487_/Q sky130_fd_sc_hd__dfrtp_1
XFILLER_8_142 VGND VGND VPWR VPWR sky130_fd_sc_hd__fill_1
X_341_ _338_/X _339_/X _338_/X _339_/X VGND VGND VPWR VPWR _464_/D sky130_fd_sc_hd__o2bb2a_1
X_410_ _497_/Q _500_/Q _497_/Q _500_/Q VGND VGND VPWR VPWR _410_/X sky130_fd_sc_hd__o2bb2a_1
X_272_ _273_/A VGND VGND VPWR VPWR _272_/X sky130_fd_sc_hd__clkbuf_1
XFILLER_23_58 VGND VGND VPWR VPWR sky130_fd_sc_hd__decap_4
XFILLER_4_71 VGND VGND VPWR VPWR sky130_fd_sc_hd__fill_1
XFILLER_4_82 VGND VGND VPWR VPWR sky130_fd_sc_hd__decap_4
X_324_ _321_/X _322_/X _321_/X _322_/X VGND VGND VPWR VPWR _456_/D sky130_fd_sc_hd__o2bb2a_1
XFILLER_2_126 VGND VGND VPWR VPWR sky130_fd_sc_hd__decap_8
X_255_ _255_/A VGND VGND VPWR VPWR _255_/X sky130_fd_sc_hd__clkbuf_1
XFILLER_1_170 VGND VGND VPWR VPWR sky130_fd_sc_hd__fill_1
XFILLER_18_36 VGND VGND VPWR VPWR sky130_fd_sc_hd__fill_1
XFILLER_18_25 VGND VGND VPWR VPWR sky130_fd_sc_hd__decap_4
XFILLER_1_3 VGND VGND VPWR VPWR sky130_fd_sc_hd__decap_3
X_307_ _310_/A VGND VGND VPWR VPWR _307_/X sky130_fd_sc_hd__clkbuf_1
XFILLER_28_166 VGND VGND VPWR VPWR sky130_fd_sc_hd__fill_1
XFILLER_28_144 VGND VGND VPWR VPWR sky130_fd_sc_hd__decap_6
XFILLER_28_111 VGND VGND VPWR VPWR sky130_fd_sc_hd__decap_8
XFILLER_15_48 VGND VGND VPWR VPWR sky130_fd_sc_hd__decap_8
XPHY_153 VGND VPWR sky130_fd_sc_hd__tapvpwrvgnd_1
XPHY_142 VGND VPWR sky130_fd_sc_hd__tapvpwrvgnd_1
XPHY_131 VGND VPWR sky130_fd_sc_hd__tapvpwrvgnd_1
XPHY_120 VGND VPWR sky130_fd_sc_hd__tapvpwrvgnd_1
XFILLER_22_139 VGND VGND VPWR VPWR sky130_fd_sc_hd__decap_4
XPHY_0 VGND VGND VPWR VPWR sky130_fd_sc_hd__decap_3
XFILLER_26_69 VGND VGND VPWR VPWR sky130_fd_sc_hd__fill_2
XFILLER_21_172 VGND VGND VPWR VPWR sky130_fd_sc_hd__fill_2
XFILLER_13_128 VGND VGND VPWR VPWR sky130_fd_sc_hd__fill_1
X_486_ _490_/CLK _486_/D _283_/X VGND VGND VPWR VPWR _486_/Q sky130_fd_sc_hd__dfrtp_1
XFILLER_16_91 VGND VGND VPWR VPWR sky130_fd_sc_hd__fill_1
XFILLER_8_110 VGND VGND VPWR VPWR sky130_fd_sc_hd__decap_6
X_271_ _273_/A VGND VGND VPWR VPWR _271_/X sky130_fd_sc_hd__clkbuf_1
X_340_ _463_/Q _466_/Q _338_/X _339_/X VGND VGND VPWR VPWR _463_/D sky130_fd_sc_hd__a22o_1
X_469_ _492_/CLK _469_/D _303_/X VGND VGND VPWR VPWR _469_/Q sky130_fd_sc_hd__dfrtp_1
XFILLER_4_94 VGND VGND VPWR VPWR sky130_fd_sc_hd__decap_4
X_323_ _455_/Q _460_/Q _321_/X _322_/X VGND VGND VPWR VPWR _455_/D sky130_fd_sc_hd__a22o_1
XFILLER_13_70 VGND VGND VPWR VPWR sky130_fd_sc_hd__decap_6
XFILLER_2_138 VGND VGND VPWR VPWR sky130_fd_sc_hd__decap_4
X_254_ _255_/A VGND VGND VPWR VPWR _254_/X sky130_fd_sc_hd__clkbuf_1
XFILLER_27_3 VGND VGND VPWR VPWR sky130_fd_sc_hd__decap_8
X_306_ _310_/A VGND VGND VPWR VPWR _306_/X sky130_fd_sc_hd__clkbuf_1
XFILLER_29_69 VGND VGND VPWR VPWR sky130_fd_sc_hd__decap_4
XFILLER_29_47 VGND VGND VPWR VPWR sky130_fd_sc_hd__decap_4
XFILLER_29_25 VGND VGND VPWR VPWR sky130_fd_sc_hd__decap_4
XFILLER_1_84 VGND VGND VPWR VPWR sky130_fd_sc_hd__decap_4
XFILLER_19_167 VGND VGND VPWR VPWR sky130_fd_sc_hd__decap_4
XFILLER_6_18 VGND VGND VPWR VPWR sky130_fd_sc_hd__decap_8
XFILLER_10_71 VGND VGND VPWR VPWR sky130_fd_sc_hd__decap_4
XFILLER_10_93 VGND VGND VPWR VPWR sky130_fd_sc_hd__fill_1
XFILLER_25_126 VGND VGND VPWR VPWR sky130_fd_sc_hd__decap_4
XFILLER_25_115 VGND VGND VPWR VPWR sky130_fd_sc_hd__decap_4
XPHY_143 VGND VPWR sky130_fd_sc_hd__tapvpwrvgnd_1
XFILLER_24_170 VGND VGND VPWR VPWR sky130_fd_sc_hd__decap_4
XPHY_132 VGND VPWR sky130_fd_sc_hd__tapvpwrvgnd_1
XPHY_121 VGND VPWR sky130_fd_sc_hd__tapvpwrvgnd_1
XPHY_110 VGND VPWR sky130_fd_sc_hd__tapvpwrvgnd_1
XFILLER_22_129 VGND VGND VPWR VPWR sky130_fd_sc_hd__decap_6
XFILLER_15_170 VGND VGND VPWR VPWR sky130_fd_sc_hd__fill_1
XPHY_1 VGND VGND VPWR VPWR sky130_fd_sc_hd__decap_3
XFILLER_26_15 VGND VGND VPWR VPWR sky130_fd_sc_hd__fill_1
X_485_ _490_/CLK _485_/D _284_/X VGND VGND VPWR VPWR _485_/Q sky130_fd_sc_hd__dfrtp_1
Xclkbuf_2_3_0_clk clkbuf_2_3_0_clk/A VGND VGND VPWR VPWR clkbuf_3_7_0_clk/A sky130_fd_sc_hd__clkbuf_1
XFILLER_8_144 VGND VGND VPWR VPWR sky130_fd_sc_hd__decap_8
X_270_ _273_/A VGND VGND VPWR VPWR _270_/X sky130_fd_sc_hd__clkbuf_1
X_468_ _492_/CLK _468_/D _304_/X VGND VGND VPWR VPWR _468_/Q sky130_fd_sc_hd__dfrtp_1
X_399_ _396_/X _397_/X _396_/X _397_/X VGND VGND VPWR VPWR _492_/D sky130_fd_sc_hd__o2bb2a_1
XFILLER_4_62 VGND VGND VPWR VPWR sky130_fd_sc_hd__fill_2
X_322_ _455_/Q _460_/Q _455_/Q _460_/Q VGND VGND VPWR VPWR _322_/X sky130_fd_sc_hd__o2bb2a_1
XFILLER_2_106 VGND VGND VPWR VPWR sky130_fd_sc_hd__decap_6
XFILLER_9_18 VGND VGND VPWR VPWR sky130_fd_sc_hd__decap_4
XFILLER_1_172 VGND VGND VPWR VPWR sky130_fd_sc_hd__fill_2
X_253_ _255_/A VGND VGND VPWR VPWR _253_/X sky130_fd_sc_hd__clkbuf_1
XFILLER_24_70 VGND VGND VPWR VPWR sky130_fd_sc_hd__decap_4
X_305_ _305_/A VGND VGND VPWR VPWR _310_/A sky130_fd_sc_hd__clkbuf_2
XFILLER_29_59 VGND VGND VPWR VPWR sky130_fd_sc_hd__decap_6
XFILLER_15_17 VGND VGND VPWR VPWR sky130_fd_sc_hd__decap_4
XPHY_100 VGND VPWR sky130_fd_sc_hd__tapvpwrvgnd_1
XPHY_144 VGND VPWR sky130_fd_sc_hd__tapvpwrvgnd_1
XPHY_133 VGND VPWR sky130_fd_sc_hd__tapvpwrvgnd_1
XFILLER_22_108 VGND VGND VPWR VPWR sky130_fd_sc_hd__fill_1
XFILLER_21_82 VGND VGND VPWR VPWR sky130_fd_sc_hd__decap_4
XPHY_122 VGND VPWR sky130_fd_sc_hd__tapvpwrvgnd_1
XPHY_111 VGND VPWR sky130_fd_sc_hd__tapvpwrvgnd_1
Xclkbuf_0_clk clk VGND VGND VPWR VPWR clkbuf_0_clk/X sky130_fd_sc_hd__clkbuf_16
XPHY_2 VGND VGND VPWR VPWR sky130_fd_sc_hd__decap_3
XFILLER_26_38 VGND VGND VPWR VPWR sky130_fd_sc_hd__decap_3
XFILLER_7_51 VGND VGND VPWR VPWR sky130_fd_sc_hd__decap_6
XFILLER_7_62 VGND VGND VPWR VPWR sky130_fd_sc_hd__fill_1
X_484_ _490_/CLK _484_/D _285_/X VGND VGND VPWR VPWR _484_/Q sky130_fd_sc_hd__dfrtp_1
XFILLER_16_82 VGND VGND VPWR VPWR sky130_fd_sc_hd__decap_4
XFILLER_16_71 VGND VGND VPWR VPWR sky130_fd_sc_hd__decap_8
XFILLER_8_101 VGND VGND VPWR VPWR sky130_fd_sc_hd__decap_6
XFILLER_5_115 VGND VGND VPWR VPWR sky130_fd_sc_hd__decap_4
XFILLER_27_70 VGND VGND VPWR VPWR sky130_fd_sc_hd__decap_4
X_467_ _480_/CLK _467_/D _306_/X VGND VGND VPWR VPWR _467_/Q sky130_fd_sc_hd__dfrtp_1
X_398_ _491_/Q _494_/Q _396_/X _397_/X VGND VGND VPWR VPWR _491_/D sky130_fd_sc_hd__a22o_1
XFILLER_4_30 VGND VGND VPWR VPWR sky130_fd_sc_hd__decap_4
XFILLER_23_39 VGND VGND VPWR VPWR sky130_fd_sc_hd__decap_6
Xclkbuf_2_2_0_clk clkbuf_2_3_0_clk/A VGND VGND VPWR VPWR clkbuf_3_5_0_clk/A sky130_fd_sc_hd__clkbuf_1
X_321_ _332_/A _321_/B VGND VGND VPWR VPWR _321_/X sky130_fd_sc_hd__and2_1
X_252_ _255_/A VGND VGND VPWR VPWR _252_/X sky130_fd_sc_hd__clkbuf_1
X_304_ _304_/A VGND VGND VPWR VPWR _304_/X sky130_fd_sc_hd__clkbuf_1
XFILLER_1_53 VGND VGND VPWR VPWR sky130_fd_sc_hd__decap_4
XFILLER_29_38 VGND VGND VPWR VPWR sky130_fd_sc_hd__fill_2
XFILLER_28_158 VGND VGND VPWR VPWR sky130_fd_sc_hd__decap_8
XPHY_145 VGND VPWR sky130_fd_sc_hd__tapvpwrvgnd_1
XPHY_134 VGND VPWR sky130_fd_sc_hd__tapvpwrvgnd_1
XFILLER_21_94 VGND VGND VPWR VPWR sky130_fd_sc_hd__fill_1
XPHY_123 VGND VPWR sky130_fd_sc_hd__tapvpwrvgnd_1
XFILLER_16_139 VGND VGND VPWR VPWR sky130_fd_sc_hd__decap_4
XPHY_112 VGND VPWR sky130_fd_sc_hd__tapvpwrvgnd_1
XPHY_101 VGND VPWR sky130_fd_sc_hd__tapvpwrvgnd_1
XFILLER_26_28 VGND VGND VPWR VPWR sky130_fd_sc_hd__fill_1
XFILLER_15_172 VGND VGND VPWR VPWR sky130_fd_sc_hd__fill_2
XFILLER_13_109 VGND VGND VPWR VPWR sky130_fd_sc_hd__decap_4
XPHY_3 VGND VGND VPWR VPWR sky130_fd_sc_hd__decap_3
XFILLER_7_85 VGND VGND VPWR VPWR sky130_fd_sc_hd__fill_1
X_483_ _490_/CLK _483_/D _286_/X VGND VGND VPWR VPWR _483_/Q sky130_fd_sc_hd__dfrtp_1
XFILLER_21_142 VGND VGND VPWR VPWR sky130_fd_sc_hd__fill_1
XFILLER_8_168 VGND VGND VPWR VPWR sky130_fd_sc_hd__decap_6
X_397_ _491_/Q _494_/Q _491_/Q _494_/Q VGND VGND VPWR VPWR _397_/X sky130_fd_sc_hd__o2bb2a_1
X_466_ _518_/CLK _466_/D _307_/X VGND VGND VPWR VPWR _466_/Q sky130_fd_sc_hd__dfrtp_1
XFILLER_4_160 VGND VGND VPWR VPWR sky130_fd_sc_hd__decap_4
XFILLER_2_119 VGND VGND VPWR VPWR sky130_fd_sc_hd__decap_4
X_320_ _421_/A VGND VGND VPWR VPWR _332_/A sky130_fd_sc_hd__clkbuf_2
XFILLER_1_141 VGND VGND VPWR VPWR sky130_fd_sc_hd__decap_4
X_251_ _255_/A VGND VGND VPWR VPWR _251_/X sky130_fd_sc_hd__clkbuf_1
X_518_ _518_/CLK _518_/D _454_/X VGND VGND VPWR VPWR _518_/Q sky130_fd_sc_hd__dfrtp_1
X_449_ _446_/X _447_/X _446_/X _447_/X VGND VGND VPWR VPWR _516_/D sky130_fd_sc_hd__o2bb2a_1
X_303_ _304_/A VGND VGND VPWR VPWR _303_/X sky130_fd_sc_hd__clkbuf_1
Xclkbuf_2_1_0_clk clkbuf_2_1_0_clk/A VGND VGND VPWR VPWR clkbuf_3_3_0_clk/A sky130_fd_sc_hd__clkbuf_1
XFILLER_29_17 VGND VGND VPWR VPWR sky130_fd_sc_hd__decap_4
XFILLER_19_115 VGND VGND VPWR VPWR sky130_fd_sc_hd__decap_8
XFILLER_19_72 VGND VGND VPWR VPWR sky130_fd_sc_hd__decap_4
XFILLER_10_30 VGND VGND VPWR VPWR sky130_fd_sc_hd__decap_4
XFILLER_10_85 VGND VGND VPWR VPWR sky130_fd_sc_hd__fill_1
XFILLER_25_3 VGND VGND VPWR VPWR sky130_fd_sc_hd__fill_1
XPHY_146 VGND VPWR sky130_fd_sc_hd__tapvpwrvgnd_1
XPHY_135 VGND VPWR sky130_fd_sc_hd__tapvpwrvgnd_1
XFILLER_21_51 VGND VGND VPWR VPWR sky130_fd_sc_hd__decap_6
XPHY_124 VGND VPWR sky130_fd_sc_hd__tapvpwrvgnd_1
XPHY_113 VGND VPWR sky130_fd_sc_hd__tapvpwrvgnd_1
XPHY_102 VGND VPWR sky130_fd_sc_hd__tapvpwrvgnd_1
XFILLER_15_162 VGND VGND VPWR VPWR sky130_fd_sc_hd__decap_8
XFILLER_15_151 VGND VGND VPWR VPWR sky130_fd_sc_hd__decap_4
XFILLER_11_9 VGND VGND VPWR VPWR sky130_fd_sc_hd__decap_6
XPHY_4 VGND VGND VPWR VPWR sky130_fd_sc_hd__decap_3
XFILLER_7_42 VGND VGND VPWR VPWR sky130_fd_sc_hd__decap_4
XFILLER_21_154 VGND VGND VPWR VPWR sky130_fd_sc_hd__fill_2
X_482_ _490_/CLK _482_/D _288_/X VGND VGND VPWR VPWR _482_/Q sky130_fd_sc_hd__dfrtp_1
XFILLER_12_132 VGND VGND VPWR VPWR sky130_fd_sc_hd__decap_4
XFILLER_8_125 VGND VGND VPWR VPWR sky130_fd_sc_hd__decap_4
XFILLER_8_136 VGND VGND VPWR VPWR sky130_fd_sc_hd__decap_6
XFILLER_27_94 VGND VGND VPWR VPWR sky130_fd_sc_hd__decap_8
XFILLER_27_50 VGND VGND VPWR VPWR sky130_fd_sc_hd__decap_6
X_465_ _480_/CLK _465_/D _308_/X VGND VGND VPWR VPWR _465_/Q sky130_fd_sc_hd__dfrtp_1
X_396_ _396_/A _396_/B VGND VGND VPWR VPWR _396_/X sky130_fd_sc_hd__and2_1
XFILLER_5_139 VGND VGND VPWR VPWR sky130_fd_sc_hd__decap_4
XFILLER_4_21 VGND VGND VPWR VPWR sky130_fd_sc_hd__decap_8
XFILLER_4_54 VGND VGND VPWR VPWR sky130_fd_sc_hd__decap_8
XFILLER_4_87 VGND VGND VPWR VPWR sky130_fd_sc_hd__decap_4
XFILLER_4_98 VGND VGND VPWR VPWR sky130_fd_sc_hd__fill_1
XFILLER_13_41 VGND VGND VPWR VPWR sky130_fd_sc_hd__decap_4
XFILLER_13_30 VGND VGND VPWR VPWR sky130_fd_sc_hd__decap_8
X_250_ _274_/A VGND VGND VPWR VPWR _255_/A sky130_fd_sc_hd__clkbuf_2
X_379_ _421_/A VGND VGND VPWR VPWR _396_/A sky130_fd_sc_hd__clkbuf_2
X_448_ _515_/Q _518_/Q _446_/X _447_/X VGND VGND VPWR VPWR _515_/D sky130_fd_sc_hd__a22o_1
X_517_ _518_/CLK _517_/D _248_/A VGND VGND VPWR VPWR _517_/Q sky130_fd_sc_hd__dfrtp_1
XFILLER_1_164 VGND VGND VPWR VPWR sky130_fd_sc_hd__decap_6
XFILLER_1_153 VGND VGND VPWR VPWR sky130_fd_sc_hd__decap_4
XFILLER_18_19 VGND VGND VPWR VPWR sky130_fd_sc_hd__fill_2
X_302_ _304_/A VGND VGND VPWR VPWR _302_/X sky130_fd_sc_hd__clkbuf_1
XFILLER_1_33 VGND VGND VPWR VPWR sky130_fd_sc_hd__decap_4
XFILLER_19_84 VGND VGND VPWR VPWR sky130_fd_sc_hd__decap_6
XFILLER_10_20 VGND VGND VPWR VPWR sky130_fd_sc_hd__decap_8
XFILLER_10_64 VGND VGND VPWR VPWR sky130_fd_sc_hd__decap_4
XPHY_147 VGND VPWR sky130_fd_sc_hd__tapvpwrvgnd_1
XFILLER_24_141 VGND VGND VPWR VPWR sky130_fd_sc_hd__fill_2
XPHY_136 VGND VPWR sky130_fd_sc_hd__tapvpwrvgnd_1
XPHY_125 VGND VPWR sky130_fd_sc_hd__tapvpwrvgnd_1
XFILLER_21_30 VGND VGND VPWR VPWR sky130_fd_sc_hd__decap_4
XPHY_114 VGND VPWR sky130_fd_sc_hd__tapvpwrvgnd_1
XPHY_103 VGND VPWR sky130_fd_sc_hd__tapvpwrvgnd_1
XPHY_5 VGND VGND VPWR VPWR sky130_fd_sc_hd__decap_3
XFILLER_7_21 VGND VGND VPWR VPWR sky130_fd_sc_hd__fill_1
Xclkbuf_2_0_0_clk clkbuf_2_1_0_clk/A VGND VGND VPWR VPWR clkbuf_3_1_0_clk/A sky130_fd_sc_hd__clkbuf_1
XFILLER_21_166 VGND VGND VPWR VPWR sky130_fd_sc_hd__decap_4
X_481_ _490_/CLK _481_/D _289_/X VGND VGND VPWR VPWR _481_/Q sky130_fd_sc_hd__dfrtp_1
XFILLER_16_30 VGND VGND VPWR VPWR sky130_fd_sc_hd__decap_6
XFILLER_12_144 VGND VGND VPWR VPWR sky130_fd_sc_hd__decap_6
XFILLER_8_159 VGND VGND VPWR VPWR sky130_fd_sc_hd__decap_4
X_464_ _492_/CLK _464_/D _309_/X VGND VGND VPWR VPWR _464_/Q sky130_fd_sc_hd__dfrtp_1
X_395_ _392_/X _393_/X _392_/X _393_/X VGND VGND VPWR VPWR _490_/D sky130_fd_sc_hd__o2bb2a_1
XFILLER_4_151 VGND VGND VPWR VPWR sky130_fd_sc_hd__decap_6
XFILLER_4_173 VGND VGND VPWR VPWR sky130_fd_sc_hd__fill_1
XFILLER_13_97 VGND VGND VPWR VPWR sky130_fd_sc_hd__decap_4
XFILLER_13_53 VGND VGND VPWR VPWR sky130_fd_sc_hd__decap_4
X_378_ _375_/X _376_/X _375_/X _376_/X VGND VGND VPWR VPWR _482_/D sky130_fd_sc_hd__o2bb2a_1
X_447_ _515_/Q _518_/Q _515_/Q _518_/Q VGND VGND VPWR VPWR _447_/X sky130_fd_sc_hd__o2bb2a_1
X_516_ _516_/CLK _516_/D _245_/X VGND VGND VPWR VPWR _516_/Q sky130_fd_sc_hd__dfrtp_1
XFILLER_1_9 VGND VGND VPWR VPWR sky130_fd_sc_hd__decap_4
XFILLER_24_85 VGND VGND VPWR VPWR sky130_fd_sc_hd__fill_1
XFILLER_24_63 VGND VGND VPWR VPWR sky130_fd_sc_hd__decap_4
XFILLER_24_30 VGND VGND VPWR VPWR sky130_fd_sc_hd__decap_6
X_301_ _304_/A VGND VGND VPWR VPWR _301_/X sky130_fd_sc_hd__clkbuf_1
XFILLER_28_139 VGND VGND VPWR VPWR sky130_fd_sc_hd__decap_4
XFILLER_1_45 VGND VGND VPWR VPWR sky130_fd_sc_hd__decap_4
XFILLER_27_172 VGND VGND VPWR VPWR sky130_fd_sc_hd__fill_2
XFILLER_10_87 VGND VGND VPWR VPWR sky130_fd_sc_hd__decap_6
XFILLER_25_109 VGND VGND VPWR VPWR sky130_fd_sc_hd__decap_4
XPHY_148 VGND VPWR sky130_fd_sc_hd__tapvpwrvgnd_1
XPHY_137 VGND VPWR sky130_fd_sc_hd__tapvpwrvgnd_1
XPHY_126 VGND VPWR sky130_fd_sc_hd__tapvpwrvgnd_1
XPHY_115 VGND VPWR sky130_fd_sc_hd__tapvpwrvgnd_1
XPHY_104 VGND VPWR sky130_fd_sc_hd__tapvpwrvgnd_1
XFILLER_21_20 VGND VGND VPWR VPWR sky130_fd_sc_hd__decap_6
XPHY_6 VGND VGND VPWR VPWR sky130_fd_sc_hd__decap_3
XFILLER_7_11 VGND VGND VPWR VPWR sky130_fd_sc_hd__fill_1
XFILLER_7_66 VGND VGND VPWR VPWR sky130_fd_sc_hd__decap_8
X_480_ _480_/CLK _480_/D _290_/X VGND VGND VPWR VPWR _480_/Q sky130_fd_sc_hd__dfrtp_1
XFILLER_12_123 VGND VGND VPWR VPWR sky130_fd_sc_hd__decap_4
XFILLER_8_116 VGND VGND VPWR VPWR sky130_fd_sc_hd__fill_1
XFILLER_27_41 VGND VGND VPWR VPWR sky130_fd_sc_hd__decap_4
X_394_ _489_/Q _492_/Q _392_/X _393_/X VGND VGND VPWR VPWR _489_/D sky130_fd_sc_hd__a22o_1
X_463_ _518_/CLK _463_/D _310_/X VGND VGND VPWR VPWR _463_/Q sky130_fd_sc_hd__dfrtp_1
XFILLER_4_67 VGND VGND VPWR VPWR sky130_fd_sc_hd__decap_4
X_377_ _481_/Q _484_/Q _375_/X _376_/X VGND VGND VPWR VPWR _481_/D sky130_fd_sc_hd__a22o_1
XFILLER_13_76 VGND VGND VPWR VPWR sky130_fd_sc_hd__fill_1
X_515_ _516_/CLK _515_/D _246_/X VGND VGND VPWR VPWR _515_/Q sky130_fd_sc_hd__dfrtp_1
X_446_ _450_/A _446_/B VGND VGND VPWR VPWR _446_/X sky130_fd_sc_hd__and2_1
X_300_ _304_/A VGND VGND VPWR VPWR _300_/X sky130_fd_sc_hd__clkbuf_1
X_429_ _426_/X _427_/X _426_/X _427_/X VGND VGND VPWR VPWR _506_/D sky130_fd_sc_hd__o2bb2a_1
Xinput1 rst VGND VGND VPWR VPWR _242_/A sky130_fd_sc_hd__clkbuf_1
XFILLER_18_173 VGND VGND VPWR VPWR sky130_fd_sc_hd__fill_1
XPHY_116 VGND VPWR sky130_fd_sc_hd__tapvpwrvgnd_1
XPHY_105 VGND VPWR sky130_fd_sc_hd__tapvpwrvgnd_1
XPHY_149 VGND VPWR sky130_fd_sc_hd__tapvpwrvgnd_1
XPHY_138 VGND VPWR sky130_fd_sc_hd__tapvpwrvgnd_1
XPHY_127 VGND VPWR sky130_fd_sc_hd__tapvpwrvgnd_1
XFILLER_21_98 VGND VGND VPWR VPWR sky130_fd_sc_hd__decap_4
XFILLER_15_110 VGND VGND VPWR VPWR sky130_fd_sc_hd__decap_4
XPHY_7 VGND VGND VPWR VPWR sky130_fd_sc_hd__decap_3
XFILLER_23_3 VGND VGND VPWR VPWR sky130_fd_sc_hd__fill_2
XFILLER_21_146 VGND VGND VPWR VPWR sky130_fd_sc_hd__decap_8
XFILLER_21_124 VGND VGND VPWR VPWR sky130_fd_sc_hd__decap_6
XFILLER_21_113 VGND VGND VPWR VPWR sky130_fd_sc_hd__fill_1
XFILLER_16_87 VGND VGND VPWR VPWR sky130_fd_sc_hd__decap_4
XFILLER_7_172 VGND VGND VPWR VPWR sky130_fd_sc_hd__fill_2
XFILLER_27_20 VGND VGND VPWR VPWR sky130_fd_sc_hd__fill_1
X_393_ _489_/Q _492_/Q _489_/Q _492_/Q VGND VGND VPWR VPWR _393_/X sky130_fd_sc_hd__o2bb2a_1
X_462_ _489_/CLK _462_/D _312_/X VGND VGND VPWR VPWR _462_/Q sky130_fd_sc_hd__dfrtp_1
XFILLER_1_134 VGND VGND VPWR VPWR sky130_fd_sc_hd__decap_4
X_514_ _516_/CLK _514_/D _247_/X VGND VGND VPWR VPWR _514_/Q sky130_fd_sc_hd__dfrtp_1
X_376_ _481_/Q _484_/Q _481_/Q _484_/Q VGND VGND VPWR VPWR _376_/X sky130_fd_sc_hd__o2bb2a_1
X_445_ _442_/X _443_/X _442_/X _443_/X VGND VGND VPWR VPWR _514_/D sky130_fd_sc_hd__o2bb2a_1
XFILLER_24_87 VGND VGND VPWR VPWR sky130_fd_sc_hd__decap_8
X_359_ _375_/A _359_/B VGND VGND VPWR VPWR _359_/X sky130_fd_sc_hd__and2_1
XFILLER_1_58 VGND VGND VPWR VPWR sky130_fd_sc_hd__decap_6
X_428_ _505_/Q _508_/Q _426_/X _427_/X VGND VGND VPWR VPWR _505_/D sky130_fd_sc_hd__a22o_1
Xinput2 x[0] VGND VGND VPWR VPWR _321_/B sky130_fd_sc_hd__clkbuf_1
XFILLER_27_141 VGND VGND VPWR VPWR sky130_fd_sc_hd__decap_6
XFILLER_19_65 VGND VGND VPWR VPWR sky130_fd_sc_hd__decap_4
XPHY_139 VGND VPWR sky130_fd_sc_hd__tapvpwrvgnd_1
XFILLER_24_144 VGND VGND VPWR VPWR sky130_fd_sc_hd__decap_6
XFILLER_24_133 VGND VGND VPWR VPWR sky130_fd_sc_hd__decap_8
XPHY_128 VGND VPWR sky130_fd_sc_hd__tapvpwrvgnd_1
XPHY_117 VGND VPWR sky130_fd_sc_hd__tapvpwrvgnd_1
XFILLER_15_100 VGND VGND VPWR VPWR sky130_fd_sc_hd__decap_6
XPHY_106 VGND VPWR sky130_fd_sc_hd__tapvpwrvgnd_1
XFILLER_16_3 VGND VGND VPWR VPWR sky130_fd_sc_hd__fill_1
XPHY_8 VGND VGND VPWR VPWR sky130_fd_sc_hd__decap_3
X_461_ _489_/CLK _461_/D _313_/X VGND VGND VPWR VPWR _461_/Q sky130_fd_sc_hd__dfrtp_1