
.SUBCKT sky130_fd_sc_hd__dfstp_4 CLK D SET_B VGND VNB VPB VPWR Q
MI36 net120 M0 VGND VNB nfet_01v8 m=1 w=0.42 l=0.15 mult=1 sa=0.265
+ sb=0.265 sd=0.28 topography=normal area=0.063 perim=1.14
MI42 db clkneg M0 VNB nfet_01v8 m=1 w=0.36 l=0.15 mult=1 sa=0.265
+ sb=0.265 sd=0.28 topography=normal area=0.063 perim=1.14
MI44 clkneg CLK VGND VNB nfet_01v8 m=1 w=0.42 l=0.15 mult=1 sa=0.265
+ sb=0.265 sd=0.28 topography=normal area=0.063 perim=1.14
MI39 db D VGND VNB nfet_01v8 m=1 w=0.64 l=0.15 mult=1 sa=0.265
+ sb=0.265 sd=0.28 topography=normal area=0.063 perim=1.14
MI656 M1 M0 net103 VNB nfet_01v8 m=1 w=0.42 l=0.15 mult=1 sa=0.265
+ sb=0.265 sd=0.28 topography=normal area=0.063 perim=1.14
MI654 net71 M1 VGND VNB nfet_01v8 m=1 w=0.42 l=0.15 mult=1 sa=0.265
+ sb=0.265 sd=0.28 topography=normal area=0.063 perim=1.14
MI34 S0 clkpos net120 VNB nfet_01v8 m=1 w=0.42 l=0.15 mult=1 sa=0.265
+ sb=0.265 sd=0.28 topography=normal area=0.063 perim=1.14
MI46 clkpos clkneg VGND VNB nfet_01v8 m=1 w=0.42 l=0.15 mult=1
+ sa=0.265 sb=0.265 sd=0.28 topography=normal area=0.063 perim=1.14
MI25 net88 SET_B VGND VNB nfet_01v8 m=1 w=0.42 l=0.15 mult=1 sa=0.265
+ sb=0.265 sd=0.28 topography=normal area=0.063 perim=1.14
MI26 S0 clkneg net80 VNB nfet_01v8 m=1 w=0.42 l=0.15 mult=1 sa=0.265
+ sb=0.265 sd=0.28 topography=normal area=0.063 perim=1.14
MI27 net80 S1 net88 VNB nfet_01v8 m=1 w=0.42 l=0.15 mult=1 sa=0.265
+ sb=0.265 sd=0.28 topography=normal area=0.063 perim=1.14
MI647 S1 S0 VGND VNB nfet_01v8 m=1 w=0.54 l=0.15 mult=1 sa=0.265
+ sb=0.265 sd=0.28 topography=normal area=0.063 perim=1.14
MI655 M0 clkpos net71 VNB nfet_01v8 m=1 w=0.36 l=0.15 mult=1 sa=0.265
+ sb=0.265 sd=0.28 topography=normal area=0.063 perim=1.14
MI657 net103 SET_B VGND VNB nfet_01v8 m=1 w=0.42 l=0.15 mult=1
+ sa=0.265 sb=0.265 sd=0.28 topography=normal area=0.063 perim=1.14
MI652 net128 S0 VGND VNB nfet_01v8 m=1 w=0.42 l=0.15 mult=1 sa=0.265
+ sb=0.265 sd=0.28 topography=normal area=0.063 perim=1.14
MI653 Q net128 VGND VNB nfet_01v8 m=5 w=0.65 l=0.15 mult=1 sa=0.265
+ sb=0.265 sd=0.28 topography=normal area=0.063 perim=1.14
MI40 db D VPWR VPB pfet_01v8_hvt m=1 w=0.84 l=0.15 mult=1 sa=0.265
+ sb=0.265 sd=0.28 topography=normal area=0.063 perim=1.14
MI38 S0 clkneg net179 VPB pfet_01v8_hvt m=1 w=0.42 l=0.15 mult=1
+ sa=0.265 sb=0.265 sd=0.28 topography=normal area=0.063 perim=1.14
MI37 net179 M0 VPWR VPB pfet_01v8_hvt m=1 w=0.42 l=0.15 mult=1
+ sa=0.265 sb=0.265 sd=0.28 topography=normal area=0.063 perim=1.14
MI43 db clkpos M0 VPB pfet_01v8_hvt m=1 w=0.42 l=0.15 mult=1 sa=0.265
+ sb=0.265 sd=0.28 topography=normal area=0.063 perim=1.14
MI45 clkneg CLK VPWR VPB pfet_01v8_hvt m=1 w=0.64 l=0.15 mult=1
+ sa=0.265 sb=0.265 sd=0.28 topography=normal area=0.063 perim=1.14
MI47 clkpos clkneg VPWR VPB pfet_01v8_hvt m=1 w=0.64 l=0.15 mult=1
+ sa=0.265 sb=0.265 sd=0.28 topography=normal area=0.063 perim=1.14
MI659 M1 SET_B VPWR VPB pfet_01v8_hvt m=1 w=0.42 l=0.15 mult=1
+ sa=0.265 sb=0.265 sd=0.28 topography=normal area=0.063 perim=1.14
MI662 net156 M1 VPWR VPB pfet_01v8_hvt m=1 w=0.42 l=0.15 mult=1
+ sa=0.265 sb=0.265 sd=0.28 topography=normal area=0.063 perim=1.14
MI664 M0 clkneg net156 VPB pfet_01v8_hvt m=1 w=0.42 l=0.15 mult=1
+ sa=0.265 sb=0.265 sd=0.28 topography=normal area=0.063 perim=1.14
MI6 net143 S1 VPWR VPB pfet_01v8_hvt m=1 w=0.42 l=0.15 mult=1 sa=0.265
+ sb=0.265 sd=0.28 topography=normal area=0.063 perim=1.14
MI5 S0 clkpos net143 VPB pfet_01v8_hvt m=1 w=0.42 l=0.15 mult=1
+ sa=0.265 sb=0.265 sd=0.28 topography=normal area=0.063 perim=1.14
MI24 S0 SET_B VPWR VPB pfet_01v8_hvt m=1 w=0.42 l=0.15 mult=1 sa=0.265
+ sb=0.265 sd=0.28 topography=normal area=0.063 perim=1.14
MI648 S1 S0 VPWR VPB pfet_01v8_hvt m=1 w=0.84 l=0.15 mult=1 sa=0.265
+ sb=0.265 sd=0.28 topography=normal area=0.063 perim=1.14
MI658 M1 M0 VPWR VPB pfet_01v8_hvt m=1 w=0.42 l=0.15 mult=1 sa=0.265
+ sb=0.265 sd=0.28 topography=normal area=0.063 perim=1.14
MI663 net128 S0 VPWR VPB pfet_01v8_hvt m=1 w=0.64 l=0.15 mult=1
+ sa=0.265 sb=0.265 sd=0.28 topography=normal area=0.063 perim=1.14
MI660 Q net128 VPWR VPB pfet_01v8_hvt m=5 w=1.0 l=0.15 mult=1 sa=0.265
+ sb=0.265 sd=0.28 topography=normal area=0.063 perim=1.14
.ENDS




.SUBCKT sky130_fd_sc_hd__dfstp_1 CLK D SET_B VGND VNB VPB VPWR Q
MI36 net120 M0 VGND VNB nfet_01v8 m=1 w=0.42 l=0.15 mult=1 sa=0.265
+ sb=0.265 sd=0.28 topography=normal area=0.063 perim=1.14
MI42 db clkneg M0 VNB nfet_01v8 m=1 w=0.36 l=0.15 mult=1 sa=0.265
+ sb=0.265 sd=0.28 topography=normal area=0.063 perim=1.14
MI44 clkneg CLK VGND VNB nfet_01v8 m=1 w=0.42 l=0.15 mult=1 sa=0.265
+ sb=0.265 sd=0.28 topography=normal area=0.063 perim=1.14
MI39 db D VGND VNB nfet_01v8 m=1 w=0.64 l=0.15 mult=1 sa=0.265
+ sb=0.265 sd=0.28 topography=normal area=0.063 perim=1.14
MI656 M1 M0 net103 VNB nfet_01v8 m=1 w=0.42 l=0.15 mult=1 sa=0.265
+ sb=0.265 sd=0.28 topography=normal area=0.063 perim=1.14
MI654 net71 M1 VGND VNB nfet_01v8 m=1 w=0.42 l=0.15 mult=1 sa=0.265
+ sb=0.265 sd=0.28 topography=normal area=0.063 perim=1.14
MI34 S0 clkpos net120 VNB nfet_01v8 m=1 w=0.42 l=0.15 mult=1 sa=0.265
+ sb=0.265 sd=0.28 topography=normal area=0.063 perim=1.14
MI46 clkpos clkneg VGND VNB nfet_01v8 m=1 w=0.42 l=0.15 mult=1
+ sa=0.265 sb=0.265 sd=0.28 topography=normal area=0.063 perim=1.14
MI25 net88 SET_B VGND VNB nfet_01v8 m=1 w=0.42 l=0.15 mult=1 sa=0.265
+ sb=0.265 sd=0.28 topography=normal area=0.063 perim=1.14
MI26 S0 clkneg net80 VNB nfet_01v8 m=1 w=0.42 l=0.15 mult=1 sa=0.265
+ sb=0.265 sd=0.28 topography=normal area=0.063 perim=1.14
MI27 net80 S1 net88 VNB nfet_01v8 m=1 w=0.42 l=0.15 mult=1 sa=0.265
+ sb=0.265 sd=0.28 topography=normal area=0.063 perim=1.14
MI647 S1 S0 VGND VNB nfet_01v8 m=1 w=0.54 l=0.15 mult=1 sa=0.265
+ sb=0.265 sd=0.28 topography=normal area=0.063 perim=1.14
MI655 M0 clkpos net71 VNB nfet_01v8 m=1 w=0.36 l=0.15 mult=1 sa=0.265
+ sb=0.265 sd=0.28 topography=normal area=0.063 perim=1.14
MI657 net103 SET_B VGND VNB nfet_01v8 m=1 w=0.42 l=0.15 mult=1
+ sa=0.265 sb=0.265 sd=0.28 topography=normal area=0.063 perim=1.14
MI652 net128 S0 VGND VNB nfet_01v8 m=1 w=0.42 l=0.15 mult=1 sa=0.265
+ sb=0.265 sd=0.28 topography=normal area=0.063 perim=1.14
MI653 Q net128 VGND VNB nfet_01v8 m=1 w=0.65 l=0.15 mult=1 sa=0.265
+ sb=0.265 sd=0.28 topography=normal area=0.063 perim=1.14
MI40 db D VPWR VPB pfet_01v8_hvt m=1 w=0.84 l=0.15 mult=1 sa=0.265
+ sb=0.265 sd=0.28 topography=normal area=0.063 perim=1.14
MI38 S0 clkneg net179 VPB pfet_01v8_hvt m=1 w=0.42 l=0.15 mult=1
+ sa=0.265 sb=0.265 sd=0.28 topography=normal area=0.063 perim=1.14
MI37 net179 M0 VPWR VPB pfet_01v8_hvt m=1 w=0.42 l=0.15 mult=1
+ sa=0.265 sb=0.265 sd=0.28 topography=normal area=0.063 perim=1.14
MI43 db clkpos M0 VPB pfet_01v8_hvt m=1 w=0.42 l=0.15 mult=1 sa=0.265
+ sb=0.265 sd=0.28 topography=normal area=0.063 perim=1.14
MI45 clkneg CLK VPWR VPB pfet_01v8_hvt m=1 w=0.64 l=0.15 mult=1
+ sa=0.265 sb=0.265 sd=0.28 topography=normal area=0.063 perim=1.14
MI47 clkpos clkneg VPWR VPB pfet_01v8_hvt m=1 w=0.64 l=0.15 mult=1
+ sa=0.265 sb=0.265 sd=0.28 topography=normal area=0.063 perim=1.14
MI659 M1 SET_B VPWR VPB pfet_01v8_hvt m=1 w=0.42 l=0.15 mult=1
+ sa=0.265 sb=0.265 sd=0.28 topography=normal area=0.063 perim=1.14
MI662 net156 M1 VPWR VPB pfet_01v8_hvt m=1 w=0.42 l=0.15 mult=1
+ sa=0.265 sb=0.265 sd=0.28 topography=normal area=0.063 perim=1.14
MI664 M0 clkneg net156 VPB pfet_01v8_hvt m=1 w=0.42 l=0.15 mult=1
+ sa=0.265 sb=0.265 sd=0.28 topography=normal area=0.063 perim=1.14
MI6 net143 S1 VPWR VPB pfet_01v8_hvt m=1 w=0.42 l=0.15 mult=1 sa=0.265
+ sb=0.265 sd=0.28 topography=normal area=0.063 perim=1.14
MI5 S0 clkpos net143 VPB pfet_01v8_hvt m=1 w=0.42 l=0.15 mult=1
+ sa=0.265 sb=0.265 sd=0.28 topography=normal area=0.063 perim=1.14
MI24 S0 SET_B VPWR VPB pfet_01v8_hvt m=1 w=0.42 l=0.15 mult=1 sa=0.265
+ sb=0.265 sd=0.28 topography=normal area=0.063 perim=1.14
MI648 S1 S0 VPWR VPB pfet_01v8_hvt m=1 w=0.84 l=0.15 mult=1 sa=0.265
+ sb=0.265 sd=0.28 topography=normal area=0.063 perim=1.14
MI658 M1 M0 VPWR VPB pfet_01v8_hvt m=1 w=0.42 l=0.15 mult=1 sa=0.265
+ sb=0.265 sd=0.28 topography=normal area=0.063 perim=1.14
MI663 net128 S0 VPWR VPB pfet_01v8_hvt m=1 w=0.64 l=0.15 mult=1
+ sa=0.265 sb=0.265 sd=0.28 topography=normal area=0.063 perim=1.14
MI660 Q net128 VPWR VPB pfet_01v8_hvt m=1 w=1.0 l=0.15 mult=1 sa=0.265
+ sb=0.265 sd=0.28 topography=normal area=0.063 perim=1.14
.ENDS




.SUBCKT sky130_fd_sc_hd__dfstp_2 CLK D SET_B VGND VNB VPB VPWR Q
MI36 net120 M0 VGND VNB nfet_01v8 m=1 w=0.42 l=0.15 mult=1 sa=0.265
+ sb=0.265 sd=0.28 topography=normal area=0.063 perim=1.14
MI42 db clkneg M0 VNB nfet_01v8 m=1 w=0.36 l=0.15 mult=1 sa=0.265
+ sb=0.265 sd=0.28 topography=normal area=0.063 perim=1.14
MI44 clkneg CLK VGND VNB nfet_01v8 m=1 w=0.42 l=0.15 mult=1 sa=0.265
+ sb=0.265 sd=0.28 topography=normal area=0.063 perim=1.14
MI39 db D VGND VNB nfet_01v8 m=1 w=0.64 l=0.15 mult=1 sa=0.265
+ sb=0.265 sd=0.28 topography=normal area=0.063 perim=1.14
MI656 M1 M0 net103 VNB nfet_01v8 m=1 w=0.42 l=0.15 mult=1 sa=0.265
+ sb=0.265 sd=0.28 topography=normal area=0.063 perim=1.14
MI654 net71 M1 VGND VNB nfet_01v8 m=1 w=0.42 l=0.15 mult=1 sa=0.265
+ sb=0.265 sd=0.28 topography=normal area=0.063 perim=1.14
MI34 S0 clkpos net120 VNB nfet_01v8 m=1 w=0.42 l=0.15 mult=1 sa=0.265
+ sb=0.265 sd=0.28 topography=normal area=0.063 perim=1.14
MI46 clkpos clkneg VGND VNB nfet_01v8 m=1 w=0.42 l=0.15 mult=1
+ sa=0.265 sb=0.265 sd=0.28 topography=normal area=0.063 perim=1.14
MI25 net88 SET_B VGND VNB nfet_01v8 m=1 w=0.42 l=0.15 mult=1 sa=0.265
+ sb=0.265 sd=0.28 topography=normal area=0.063 perim=1.14
MI26 S0 clkneg net80 VNB nfet_01v8 m=1 w=0.42 l=0.15 mult=1 sa=0.265
+ sb=0.265 sd=0.28 topography=normal area=0.063 perim=1.14
MI27 net80 S1 net88 VNB nfet_01v8 m=1 w=0.42 l=0.15 mult=1 sa=0.265
+ sb=0.265 sd=0.28 topography=normal area=0.063 perim=1.14
MI647 S1 S0 VGND VNB nfet_01v8 m=1 w=0.54 l=0.15 mult=1 sa=0.265
+ sb=0.265 sd=0.28 topography=normal area=0.063 perim=1.14
MI655 M0 clkpos net71 VNB nfet_01v8 m=1 w=0.36 l=0.15 mult=1 sa=0.265
+ sb=0.265 sd=0.28 topography=normal area=0.063 perim=1.14
MI657 net103 SET_B VGND VNB nfet_01v8 m=1 w=0.42 l=0.15 mult=1
+ sa=0.265 sb=0.265 sd=0.28 topography=normal area=0.063 perim=1.14
MI652 net128 S0 VGND VNB nfet_01v8 m=1 w=0.65 l=0.15 mult=1 sa=0.265
+ sb=0.265 sd=0.28 topography=normal area=0.063 perim=1.14
MI653 Q net128 VGND VNB nfet_01v8 m=2 w=0.65 l=0.15 mult=1 sa=0.265
+ sb=0.265 sd=0.28 topography=normal area=0.063 perim=1.14
MI40 db D VPWR VPB pfet_01v8_hvt m=1 w=0.84 l=0.15 mult=1 sa=0.265
+ sb=0.265 sd=0.28 topography=normal area=0.063 perim=1.14
MI38 S0 clkneg net179 VPB pfet_01v8_hvt m=1 w=0.42 l=0.15 mult=1
+ sa=0.265 sb=0.265 sd=0.28 topography=normal area=0.063 perim=1.14
MI37 net179 M0 VPWR VPB pfet_01v8_hvt m=1 w=0.42 l=0.15 mult=1
+ sa=0.265 sb=0.265 sd=0.28 topography=normal area=0.063 perim=1.14
MI43 db clkpos M0 VPB pfet_01v8_hvt m=1 w=0.42 l=0.15 mult=1 sa=0.265
+ sb=0.265 sd=0.28 topography=normal area=0.063 perim=1.14
MI45 clkneg CLK VPWR VPB pfet_01v8_hvt m=1 w=0.64 l=0.15 mult=1
+ sa=0.265 sb=0.265 sd=0.28 topography=normal area=0.063 perim=1.14
MI47 clkpos clkneg VPWR VPB pfet_01v8_hvt m=1 w=0.64 l=0.15 mult=1
+ sa=0.265 sb=0.265 sd=0.28 topography=normal area=0.063 perim=1.14
MI659 M1 SET_B VPWR VPB pfet_01v8_hvt m=1 w=0.42 l=0.15 mult=1
+ sa=0.265 sb=0.265 sd=0.28 topography=normal area=0.063 perim=1.14
MI662 net156 M1 VPWR VPB pfet_01v8_hvt m=1 w=0.42 l=0.15 mult=1
+ sa=0.265 sb=0.265 sd=0.28 topography=normal area=0.063 perim=1.14
MI664 M0 clkneg net156 VPB pfet_01v8_hvt m=1 w=0.42 l=0.15 mult=1
+ sa=0.265 sb=0.265 sd=0.28 topography=normal area=0.063 perim=1.14
MI6 net143 S1 VPWR VPB pfet_01v8_hvt m=1 w=0.42 l=0.15 mult=1 sa=0.265
+ sb=0.265 sd=0.28 topography=normal area=0.063 perim=1.14
MI5 S0 clkpos net143 VPB pfet_01v8_hvt m=1 w=0.42 l=0.15 mult=1
+ sa=0.265 sb=0.265 sd=0.28 topography=normal area=0.063 perim=1.14
MI24 S0 SET_B VPWR VPB pfet_01v8_hvt m=1 w=0.42 l=0.15 mult=1 sa=0.265
+ sb=0.265 sd=0.28 topography=normal area=0.063 perim=1.14
MI648 S1 S0 VPWR VPB pfet_01v8_hvt m=1 w=0.84 l=0.15 mult=1 sa=0.265
+ sb=0.265 sd=0.28 topography=normal area=0.063 perim=1.14
MI658 M1 M0 VPWR VPB pfet_01v8_hvt m=1 w=0.42 l=0.15 mult=1 sa=0.265
+ sb=0.265 sd=0.28 topography=normal area=0.063 perim=1.14
MI663 net128 S0 VPWR VPB pfet_01v8_hvt m=1 w=1 l=0.15 mult=1 sa=0.265
+ sb=0.265 sd=0.28 topography=normal area=0.063 perim=1.14
MI660 Q net128 VPWR VPB pfet_01v8_hvt m=2 w=1.0 l=0.15 mult=1 sa=0.265
+ sb=0.265 sd=0.28 topography=normal area=0.063 perim=1.14
.ENDS




.SUBCKT sky130_fd_sc_hd__dlxbn_2 D GATE_N VGND VNB VPB VPWR Q Q_N
MI635 clkneg clkpos VPWR VPB pfet_01v8_hvt m=1 w=0.64 l=0.15 mult=1
+ sa=0.265 sb=0.265 sd=0.28 topography=normal area=0.063 perim=1.14
MI648 Q_N net114 VPWR VPB pfet_01v8_hvt m=2 w=1.0 l=0.15 mult=1
+ sa=0.265 sb=0.265 sd=0.28 topography=normal area=0.063 perim=1.14
MI17 M0 clkneg net58 VPB pfet_01v8_hvt m=1 w=0.42 l=0.15 mult=1
+ sa=0.265 sb=0.265 sd=0.28 topography=normal area=0.063 perim=1.14
MI646 net114 m1 VPWR VPB pfet_01v8_hvt m=1 w=0.64 l=0.15 mult=1
+ sa=0.265 sb=0.265 sd=0.28 topography=normal area=0.063 perim=1.14
MI650 Q m1 VPWR VPB pfet_01v8_hvt m=2 w=1.0 l=0.15 mult=1 sa=0.265
+ sb=0.265 sd=0.28 topography=normal area=0.063 perim=1.14
MI633 clkpos GATE_N VPWR VPB pfet_01v8_hvt m=1 w=0.64 l=0.15 mult=1
+ sa=0.265 sb=0.265 sd=0.28 topography=normal area=0.063 perim=1.14
MI18 net58 db VPWR VPB pfet_01v8_hvt m=1 w=0.64 l=0.15 mult=1 sa=0.265
+ sb=0.265 sd=0.28 topography=normal area=0.063 perim=1.14
MI653 net54 m1 VPWR VPB pfet_01v8_hvt m=1 w=0.42 l=0.15 mult=1
+ sa=0.265 sb=0.265 sd=0.28 topography=normal area=0.063 perim=1.14
MI651 M0 clkpos net54 VPB pfet_01v8_hvt m=1 w=0.42 l=0.15 mult=1
+ sa=0.265 sb=0.265 sd=0.28 topography=normal area=0.063 perim=1.14
MI655 m1 M0 VPWR VPB pfet_01v8_hvt m=1 w=1.0 l=0.15 mult=1 sa=0.265
+ sb=0.265 sd=0.28 topography=normal area=0.063 perim=1.14
MI638 db D VPWR VPB pfet_01v8_hvt m=1 w=0.64 l=0.15 mult=1 sa=0.265
+ sb=0.265 sd=0.28 topography=normal area=0.063 perim=1.14
MI634 clkpos GATE_N VGND VNB nfet_01v8 m=1 w=0.42 l=0.15 mult=1
+ sa=0.265 sb=0.265 sd=0.28 topography=normal area=0.063 perim=1.14
MI647 Q_N net114 VGND VNB nfet_01v8 m=2 w=0.65 l=0.15 mult=1 sa=0.265
+ sb=0.265 sd=0.28 topography=normal area=0.063 perim=1.14
MI649 Q m1 VGND VNB nfet_01v8 m=2 w=0.65 l=0.15 mult=1 sa=0.265
+ sb=0.265 sd=0.28 topography=normal area=0.063 perim=1.14
MI645 net114 m1 VGND VNB nfet_01v8 m=1 w=0.42 l=0.15 mult=1 sa=0.265
+ sb=0.265 sd=0.28 topography=normal area=0.063 perim=1.14
MI652 M0 clkneg net109 VNB nfet_01v8 m=1 w=0.36 l=0.15 mult=1 sa=0.265
+ sb=0.265 sd=0.28 topography=normal area=0.063 perim=1.14
MI654 net109 m1 VGND VNB nfet_01v8 m=1 w=0.42 l=0.15 mult=1 sa=0.265
+ sb=0.265 sd=0.28 topography=normal area=0.063 perim=1.14
MI656 m1 M0 VGND VNB nfet_01v8 m=1 w=0.65 l=0.15 mult=1 sa=0.265
+ sb=0.265 sd=0.28 topography=normal area=0.063 perim=1.14
MI636 clkneg clkpos VGND VNB nfet_01v8 m=1 w=0.42 l=0.15 mult=1
+ sa=0.265 sb=0.265 sd=0.28 topography=normal area=0.063 perim=1.14
MI637 db D VGND VNB nfet_01v8 m=1 w=0.42 l=0.15 mult=1 sa=0.265
+ sb=0.265 sd=0.28 topography=normal area=0.063 perim=1.14
MI19 M0 clkpos net89 VNB nfet_01v8 m=1 w=0.36 l=0.15 mult=1 sa=0.265
+ sb=0.265 sd=0.28 topography=normal area=0.063 perim=1.14
MI20 net89 db VGND VNB nfet_01v8 m=1 w=0.42 l=0.15 mult=1 sa=0.265
+ sb=0.265 sd=0.28 topography=normal area=0.063 perim=1.14
.ENDS




.SUBCKT sky130_fd_sc_hd__dlxbn_1 D GATE_N VGND VNB VPB VPWR Q Q_N
MI635 clkneg clkpos VPWR VPB pfet_01v8_hvt m=1 w=0.64 l=0.15 mult=1
+ sa=0.265 sb=0.265 sd=0.28 topography=normal area=0.063 perim=1.14
MI648 Q_N net112 VPWR VPB pfet_01v8_hvt m=1 w=1.0 l=0.15 mult=1
+ sa=0.265 sb=0.265 sd=0.28 topography=normal area=0.063 perim=1.14
MI17 M0 clkneg net56 VPB pfet_01v8_hvt m=1 w=0.42 l=0.15 mult=1
+ sa=0.265 sb=0.265 sd=0.28 topography=normal area=0.063 perim=1.14
MI646 net112 m1 VPWR VPB pfet_01v8_hvt m=1 w=0.64 l=0.15 mult=1
+ sa=0.265 sb=0.265 sd=0.28 topography=normal area=0.063 perim=1.14
MI650 Q m1 VPWR VPB pfet_01v8_hvt m=1 w=1.0 l=0.15 mult=1 sa=0.265
+ sb=0.265 sd=0.28 topography=normal area=0.063 perim=1.14
MI633 clkpos GATE_N VPWR VPB pfet_01v8_hvt m=1 w=0.64 l=0.15 mult=1
+ sa=0.265 sb=0.265 sd=0.28 topography=normal area=0.063 perim=1.14
MI18 net56 db VPWR VPB pfet_01v8_hvt m=1 w=0.64 l=0.15 mult=1 sa=0.265
+ sb=0.265 sd=0.28 topography=normal area=0.063 perim=1.14
MI653 net52 m1 VPWR VPB pfet_01v8_hvt m=1 w=0.42 l=0.15 mult=1
+ sa=0.265 sb=0.265 sd=0.28 topography=normal area=0.063 perim=1.14
MI651 M0 clkpos net52 VPB pfet_01v8_hvt m=1 w=0.42 l=0.15 mult=1
+ sa=0.265 sb=0.265 sd=0.28 topography=normal area=0.063 perim=1.14
MI655 m1 M0 VPWR VPB pfet_01v8_hvt m=1 w=1.0 l=0.15 mult=1 sa=0.265
+ sb=0.265 sd=0.28 topography=normal area=0.063 perim=1.14
MI638 db D VPWR VPB pfet_01v8_hvt m=1 w=0.64 l=0.15 mult=1 sa=0.265
+ sb=0.265 sd=0.28 topography=normal area=0.063 perim=1.14
MI634 clkpos GATE_N VGND VNB nfet_01v8 m=1 w=0.42 l=0.15 mult=1
+ sa=0.265 sb=0.265 sd=0.28 topography=normal area=0.063 perim=1.14
MI647 Q_N net112 VGND VNB nfet_01v8 m=1 w=0.65 l=0.15 mult=1 sa=0.265
+ sb=0.265 sd=0.28 topography=normal area=0.063 perim=1.14
MI649 Q m1 VGND VNB nfet_01v8 m=1 w=0.65 l=0.15 mult=1 sa=0.265
+ sb=0.265 sd=0.28 topography=normal area=0.063 perim=1.14
MI645 net112 m1 VGND VNB nfet_01v8 m=1 w=0.42 l=0.15 mult=1 sa=0.265
+ sb=0.265 sd=0.28 topography=normal area=0.063 perim=1.14
MI652 M0 clkneg net107 VNB nfet_01v8 m=1 w=0.36 l=0.15 mult=1 sa=0.265
+ sb=0.265 sd=0.28 topography=normal area=0.063 perim=1.14
MI654 net107 m1 VGND VNB nfet_01v8 m=1 w=0.42 l=0.15 mult=1 sa=0.265
+ sb=0.265 sd=0.28 topography=normal area=0.063 perim=1.14
MI656 m1 M0 VGND VNB nfet_01v8 m=1 w=0.65 l=0.15 mult=1 sa=0.265
+ sb=0.265 sd=0.28 topography=normal area=0.063 perim=1.14
MI636 clkneg clkpos VGND VNB nfet_01v8 m=1 w=0.42 l=0.15 mult=1
+ sa=0.265 sb=0.265 sd=0.28 topography=normal area=0.063 perim=1.14
MI637 db D VGND VNB nfet_01v8 m=1 w=0.42 l=0.15 mult=1 sa=0.265
+ sb=0.265 sd=0.28 topography=normal area=0.063 perim=1.14
MI19 M0 clkpos net87 VNB nfet_01v8 m=1 w=0.36 l=0.15 mult=1 sa=0.265
+ sb=0.265 sd=0.28 topography=normal area=0.063 perim=1.14
MI20 net87 db VGND VNB nfet_01v8 m=1 w=0.42 l=0.15 mult=1 sa=0.265
+ sb=0.265 sd=0.28 topography=normal area=0.063 perim=1.14
.ENDS




.SUBCKT sky130_fd_sc_hd__xor2_1 A B VGND VNB VPB VPWR X
MMNnor0 inor A VGND VNB nfet_01v8 m=1 w=0.65 l=0.15 mult=1 sa=0.265
+ sb=0.265 sd=0.28 topography=normal area=0.063 perim=1.14
MMNnor1 inor B VGND VNB nfet_01v8 m=1 w=0.65 l=0.15 mult=1 sa=0.265
+ sb=0.265 sd=0.28 topography=normal area=0.063 perim=1.14
MMNaoi10 VGND A sndNA VNB nfet_01v8 m=1 w=0.65 l=0.15 mult=1 sa=0.265
+ sb=0.265 sd=0.28 topography=normal area=0.063 perim=1.14
MMNaoi11 sndNA B X VNB nfet_01v8 m=1 w=0.65 l=0.15 mult=1 sa=0.265
+ sb=0.265 sd=0.28 topography=normal area=0.063 perim=1.14
MMNaoi20 X inor VGND VNB nfet_01v8 m=1 w=0.65 l=0.15 mult=1 sa=0.265
+ sb=0.265 sd=0.28 topography=normal area=0.063 perim=1.14
MMPnor0 VPWR A sndPA VPB pfet_01v8_hvt m=1 w=1.0 l=0.15 mult=1
+ sa=0.265 sb=0.265 sd=0.28 topography=normal area=0.063 perim=1.14
MMPnor1 sndPA B inor VPB pfet_01v8_hvt m=1 w=1.0 l=0.15 mult=1
+ sa=0.265 sb=0.265 sd=0.28 topography=normal area=0.063 perim=1.14
MMPaoi10 pmid A VPWR VPB pfet_01v8_hvt m=1 w=1.0 l=0.15 mult=1
+ sa=0.265 sb=0.265 sd=0.28 topography=normal area=0.063 perim=1.14
MMPaoi11 pmid B VPWR VPB pfet_01v8_hvt m=1 w=1.0 l=0.15 mult=1
+ sa=0.265 sb=0.265 sd=0.28 topography=normal area=0.063 perim=1.14
MMPaoi20 X inor pmid VPB pfet_01v8_hvt m=1 w=1.0 l=0.15 mult=1
+ sa=0.265 sb=0.265 sd=0.28 topography=normal area=0.063 perim=1.14
.ENDS




.SUBCKT sky130_fd_sc_hd__xor2_4 A B VGND VNB VPB VPWR X
MMNnor0 inor A VGND VNB nfet_01v8 m=4 w=0.65 l=0.15 mult=1 sa=0.265
+ sb=0.265 sd=0.28 topography=normal area=0.063 perim=1.14
MMNnor1 inor B VGND VNB nfet_01v8 m=4 w=0.65 l=0.15 mult=1 sa=0.265
+ sb=0.265 sd=0.28 topography=normal area=0.063 perim=1.14
MMNaoi10 VGND A sndNA VNB nfet_01v8 m=4 w=0.65 l=0.15 mult=1 sa=0.265
+ sb=0.265 sd=0.28 topography=normal area=0.063 perim=1.14
MMNaoi11 sndNA B X VNB nfet_01v8 m=4 w=0.65 l=0.15 mult=1 sa=0.265
+ sb=0.265 sd=0.28 topography=normal area=0.063 perim=1.14
MMNaoi20 X inor VGND VNB nfet_01v8 m=4 w=0.65 l=0.15 mult=1 sa=0.265
+ sb=0.265 sd=0.28 topography=normal area=0.063 perim=1.14
MMPnor0 VPWR A sndPA VPB pfet_01v8_hvt m=4 w=1.0 l=0.15 mult=1
+ sa=0.265 sb=0.265 sd=0.28 topography=normal area=0.063 perim=1.14
MMPnor1 sndPA B inor VPB pfet_01v8_hvt m=4 w=1.0 l=0.15 mult=1
+ sa=0.265 sb=0.265 sd=0.28 topography=normal area=0.063 perim=1.14
MMPaoi10 pmid A VPWR VPB pfet_01v8_hvt m=4 w=1.0 l=0.15 mult=1
+ sa=0.265 sb=0.265 sd=0.28 topography=normal area=0.063 perim=1.14
MMPaoi11 pmid B VPWR VPB pfet_01v8_hvt m=4 w=1.0 l=0.15 mult=1
+ sa=0.265 sb=0.265 sd=0.28 topography=normal area=0.063 perim=1.14
MMPaoi20 X inor pmid VPB pfet_01v8_hvt m=4 w=1.0 l=0.15 mult=1
+ sa=0.265 sb=0.265 sd=0.28 topography=normal area=0.063 perim=1.14
.ENDS




.SUBCKT sky130_fd_sc_hd__xor2_2 A B VGND VNB VPB VPWR X
MMNnor0 inor A VGND VNB nfet_01v8 m=2 w=0.65 l=0.15 mult=1 sa=0.265
+ sb=0.265 sd=0.28 topography=normal area=0.063 perim=1.14
MMNnor1 inor B VGND VNB nfet_01v8 m=2 w=0.65 l=0.15 mult=1 sa=0.265
+ sb=0.265 sd=0.28 topography=normal area=0.063 perim=1.14
MMNaoi10 VGND A sndNA VNB nfet_01v8 m=2 w=0.65 l=0.15 mult=1 sa=0.265
+ sb=0.265 sd=0.28 topography=normal area=0.063 perim=1.14
MMNaoi11 sndNA B X VNB nfet_01v8 m=2 w=0.65 l=0.15 mult=1 sa=0.265
+ sb=0.265 sd=0.28 topography=normal area=0.063 perim=1.14
MMNaoi20 X inor VGND VNB nfet_01v8 m=2 w=0.65 l=0.15 mult=1 sa=0.265
+ sb=0.265 sd=0.28 topography=normal area=0.063 perim=1.14
MMPnor0 VPWR A sndPA VPB pfet_01v8_hvt m=2 w=1.0 l=0.15 mult=1
+ sa=0.265 sb=0.265 sd=0.28 topography=normal area=0.063 perim=1.14
MMPnor1 sndPA B inor VPB pfet_01v8_hvt m=2 w=1.0 l=0.15 mult=1
+ sa=0.265 sb=0.265 sd=0.28 topography=normal area=0.063 perim=1.14
MMPaoi10 pmid A VPWR VPB pfet_01v8_hvt m=2 w=1.0 l=0.15 mult=1
+ sa=0.265 sb=0.265 sd=0.28 topography=normal area=0.063 perim=1.14
MMPaoi11 pmid B VPWR VPB pfet_01v8_hvt m=2 w=1.0 l=0.15 mult=1
+ sa=0.265 sb=0.265 sd=0.28 topography=normal area=0.063 perim=1.14
MMPaoi20 X inor pmid VPB pfet_01v8_hvt m=2 w=1.0 l=0.15 mult=1
+ sa=0.265 sb=0.265 sd=0.28 topography=normal area=0.063 perim=1.14
.ENDS




.SUBCKT sky130_fd_sc_hd__dlxtp_1 D GATE VGND VNB VPB VPWR Q
MI635 clkpos clkneg VPWR VPB pfet_01v8_hvt m=1 w=0.64 l=0.15 mult=1
+ sa=0.265 sb=0.265 sd=0.28 topography=normal area=0.063 perim=1.14
MI17 M0 clkneg net51 VPB pfet_01v8_hvt m=1 w=0.42 l=0.15 mult=1
+ sa=0.265 sb=0.265 sd=0.28 topography=normal area=0.063 perim=1.14
MI650 Q m1 VPWR VPB pfet_01v8_hvt m=1 w=1.0 l=0.15 mult=1 sa=0.265
+ sb=0.265 sd=0.28 topography=normal area=0.063 perim=1.14
MI633 clkneg GATE VPWR VPB pfet_01v8_hvt m=1 w=0.64 l=0.15 mult=1
+ sa=0.265 sb=0.265 sd=0.28 topography=normal area=0.063 perim=1.14
MI18 net51 db VPWR VPB pfet_01v8_hvt m=1 w=0.64 l=0.15 mult=1 sa=0.265
+ sb=0.265 sd=0.28 topography=normal area=0.063 perim=1.14
MI653 net47 m1 VPWR VPB pfet_01v8_hvt m=1 w=0.42 l=0.15 mult=1
+ sa=0.265 sb=0.265 sd=0.28 topography=normal area=0.063 perim=1.14
MI651 M0 clkpos net47 VPB pfet_01v8_hvt m=1 w=0.42 l=0.15 mult=1
+ sa=0.265 sb=0.265 sd=0.28 topography=normal area=0.063 perim=1.14
MI655 m1 M0 VPWR VPB pfet_01v8_hvt m=1 w=1.0 l=0.15 mult=1 sa=0.265
+ sb=0.265 sd=0.28 topography=normal area=0.063 perim=1.14
MI638 db D VPWR VPB pfet_01v8_hvt m=1 w=0.64 l=0.15 mult=1 sa=0.265
+ sb=0.265 sd=0.28 topography=normal area=0.063 perim=1.14
MI634 clkneg GATE VGND VNB nfet_01v8 m=1 w=0.42 l=0.15 mult=1 sa=0.265
+ sb=0.265 sd=0.28 topography=normal area=0.063 perim=1.14
MI649 Q m1 VGND VNB nfet_01v8 m=1 w=0.65 l=0.15 mult=1 sa=0.265
+ sb=0.265 sd=0.28 topography=normal area=0.063 perim=1.14
MI652 M0 clkneg net94 VNB nfet_01v8 m=1 w=0.36 l=0.15 mult=1 sa=0.265
+ sb=0.265 sd=0.28 topography=normal area=0.063 perim=1.14
MI654 net94 m1 VGND VNB nfet_01v8 m=1 w=0.36 l=0.15 mult=1 sa=0.265
+ sb=0.265 sd=0.28 topography=normal area=0.063 perim=1.14
MI656 m1 M0 VGND VNB nfet_01v8 m=1 w=0.65 l=0.15 mult=1 sa=0.265
+ sb=0.265 sd=0.28 topography=normal area=0.063 perim=1.14
MI636 clkpos clkneg VGND VNB nfet_01v8 m=1 w=0.42 l=0.15 mult=1
+ sa=0.265 sb=0.265 sd=0.28 topography=normal area=0.063 perim=1.14
MI637 db D VGND VNB nfet_01v8 m=1 w=0.42 l=0.15 mult=1 sa=0.265
+ sb=0.265 sd=0.28 topography=normal area=0.063 perim=1.14
MI19 M0 clkpos net74 VNB nfet_01v8 m=1 w=0.36 l=0.15 mult=1 sa=0.265
+ sb=0.265 sd=0.28 topography=normal area=0.063 perim=1.14
MI20 net74 db VGND VNB nfet_01v8 m=1 w=0.42 l=0.15 mult=1 sa=0.265
+ sb=0.265 sd=0.28 topography=normal area=0.063 perim=1.14
.ENDS




.SUBCKT sky130_fd_sc_hd__dlrbp_1 D GATE RESET_B VGND VNB VPB VPWR Q Q_N
MI635 clkpos clkneg VPWR VPB pfet_01v8_hvt m=1 w=0.64 l=0.15 mult=1
+ sa=0.265 sb=0.265 sd=0.28 topography=normal area=0.063 perim=1.14
MI648 Q_N net125 VPWR VPB pfet_01v8_hvt m=1 w=1.0 l=0.15 mult=1
+ sa=0.265 sb=0.265 sd=0.28 topography=normal area=0.063 perim=1.14
MI17 M0 clkneg net61 VPB pfet_01v8_hvt m=1 w=0.42 l=0.15 mult=1
+ sa=0.265 sb=0.265 sd=0.28 topography=normal area=0.063 perim=1.14
MI646 net125 m1 VPWR VPB pfet_01v8_hvt m=1 w=0.64 l=0.15 mult=1
+ sa=0.265 sb=0.265 sd=0.28 topography=normal area=0.063 perim=1.14
MI650 Q m1 VPWR VPB pfet_01v8_hvt m=1 w=1.0 l=0.15 mult=1 sa=0.265
+ sb=0.265 sd=0.28 topography=normal area=0.063 perim=1.14
MI633 clkneg GATE VPWR VPB pfet_01v8_hvt m=1 w=0.64 l=0.15 mult=1
+ sa=0.265 sb=0.265 sd=0.28 topography=normal area=0.063 perim=1.14
MI658 m1 RESET_B VPWR VPB pfet_01v8_hvt m=1 w=1.0 l=0.15 mult=1
+ sa=0.265 sb=0.265 sd=0.28 topography=normal area=0.063 perim=1.14
MI18 net61 db VPWR VPB pfet_01v8_hvt m=1 w=0.64 l=0.15 mult=1 sa=0.265
+ sb=0.265 sd=0.28 topography=normal area=0.063 perim=1.14
MI653 net57 m1 VPWR VPB pfet_01v8_hvt m=1 w=0.42 l=0.15 mult=1
+ sa=0.265 sb=0.265 sd=0.28 topography=normal area=0.063 perim=1.14
MI651 M0 clkpos net57 VPB pfet_01v8_hvt m=1 w=0.42 l=0.15 mult=1
+ sa=0.265 sb=0.265 sd=0.28 topography=normal area=0.063 perim=1.14
MI655 m1 M0 VPWR VPB pfet_01v8_hvt m=1 w=1.0 l=0.15 mult=1 sa=0.265
+ sb=0.265 sd=0.28 topography=normal area=0.063 perim=1.14
MI638 db D VPWR VPB pfet_01v8_hvt m=1 w=0.64 l=0.15 mult=1 sa=0.265
+ sb=0.265 sd=0.28 topography=normal area=0.063 perim=1.14
MI634 clkneg GATE VGND VNB nfet_01v8 m=1 w=0.42 l=0.15 mult=1 sa=0.265
+ sb=0.265 sd=0.28 topography=normal area=0.063 perim=1.14
MI647 Q_N net125 VGND VNB nfet_01v8 m=1 w=0.65 l=0.15 mult=1 sa=0.265
+ sb=0.265 sd=0.28 topography=normal area=0.063 perim=1.14
MI649 Q m1 VGND VNB nfet_01v8 m=1 w=0.65 l=0.15 mult=1 sa=0.265
+ sb=0.265 sd=0.28 topography=normal area=0.063 perim=1.14
MI645 net125 m1 VGND VNB nfet_01v8 m=1 w=0.42 l=0.15 mult=1 sa=0.265
+ sb=0.265 sd=0.28 topography=normal area=0.063 perim=1.14
MI657 net121 RESET_B VGND VNB nfet_01v8 m=1 w=0.65 l=0.15 mult=1
+ sa=0.265 sb=0.265 sd=0.28 topography=normal area=0.063 perim=1.14
MI652 M0 clkneg net116 VNB nfet_01v8 m=1 w=0.36 l=0.15 mult=1 sa=0.265
+ sb=0.265 sd=0.28 topography=normal area=0.063 perim=1.14
MI654 net116 m1 VGND VNB nfet_01v8 m=1 w=0.42 l=0.15 mult=1 sa=0.265
+ sb=0.265 sd=0.28 topography=normal area=0.063 perim=1.14
MI656 m1 M0 net121 VNB nfet_01v8 m=1 w=0.65 l=0.15 mult=1 sa=0.265
+ sb=0.265 sd=0.28 topography=normal area=0.063 perim=1.14
MI636 clkpos clkneg VGND VNB nfet_01v8 m=1 w=0.42 l=0.15 mult=1
+ sa=0.265 sb=0.265 sd=0.28 topography=normal area=0.063 perim=1.14
MI637 db D VGND VNB nfet_01v8 m=1 w=0.42 l=0.15 mult=1 sa=0.265
+ sb=0.265 sd=0.28 topography=normal area=0.063 perim=1.14
MI19 M0 clkpos net96 VNB nfet_01v8 m=1 w=0.36 l=0.15 mult=1 sa=0.265
+ sb=0.265 sd=0.28 topography=normal area=0.063 perim=1.14
MI20 net96 db VGND VNB nfet_01v8 m=1 w=0.42 l=0.15 mult=1 sa=0.265
+ sb=0.265 sd=0.28 topography=normal area=0.063 perim=1.14
.ENDS




.SUBCKT sky130_fd_sc_hd__dlrbp_2 D GATE RESET_B VGND VNB VPB VPWR Q Q_N
MI635 clkpos clkneg VPWR VPB pfet_01v8_hvt m=1 w=0.64 l=0.15 mult=1
+ sa=0.265 sb=0.265 sd=0.28 topography=normal area=0.063 perim=1.14
MI648 Q_N net125 VPWR VPB pfet_01v8_hvt m=2 w=1.0 l=0.15 mult=1
+ sa=0.265 sb=0.265 sd=0.28 topography=normal area=0.063 perim=1.14
MI17 M0 clkneg net61 VPB pfet_01v8_hvt m=1 w=0.42 l=0.15 mult=1
+ sa=0.265 sb=0.265 sd=0.28 topography=normal area=0.063 perim=1.14
MI646 net125 m1 VPWR VPB pfet_01v8_hvt m=1 w=0.64 l=0.15 mult=1
+ sa=0.265 sb=0.265 sd=0.28 topography=normal area=0.063 perim=1.14
MI650 Q m1 VPWR VPB pfet_01v8_hvt m=2 w=1.0 l=0.15 mult=1 sa=0.265
+ sb=0.265 sd=0.28 topography=normal area=0.063 perim=1.14
MI633 clkneg GATE VPWR VPB pfet_01v8_hvt m=1 w=0.64 l=0.15 mult=1
+ sa=0.265 sb=0.265 sd=0.28 topography=normal area=0.063 perim=1.14
MI658 m1 RESET_B VPWR VPB pfet_01v8_hvt m=1 w=1.0 l=0.15 mult=1
+ sa=0.265 sb=0.265 sd=0.28 topography=normal area=0.063 perim=1.14
MI18 net61 db VPWR VPB pfet_01v8_hvt m=1 w=0.64 l=0.15 mult=1 sa=0.265
+ sb=0.265 sd=0.28 topography=normal area=0.063 perim=1.14
MI653 net57 m1 VPWR VPB pfet_01v8_hvt m=1 w=0.42 l=0.15 mult=1
+ sa=0.265 sb=0.265 sd=0.28 topography=normal area=0.063 perim=1.14
MI651 M0 clkpos net57 VPB pfet_01v8_hvt m=1 w=0.42 l=0.15 mult=1
+ sa=0.265 sb=0.265 sd=0.28 topography=normal area=0.063 perim=1.14
MI655 m1 M0 VPWR VPB pfet_01v8_hvt m=1 w=1.0 l=0.15 mult=1 sa=0.265
+ sb=0.265 sd=0.28 topography=normal area=0.063 perim=1.14
MI638 db D VPWR VPB pfet_01v8_hvt m=1 w=0.64 l=0.15 mult=1 sa=0.265
+ sb=0.265 sd=0.28 topography=normal area=0.063 perim=1.14
MI634 clkneg GATE VGND VNB nfet_01v8 m=1 w=0.42 l=0.15 mult=1 sa=0.265
+ sb=0.265 sd=0.28 topography=normal area=0.063 perim=1.14
MI647 Q_N net125 VGND VNB nfet_01v8 m=2 w=0.65 l=0.15 mult=1 sa=0.265