*SPEF "IEEE 1481-1998"
*DESIGN "spm"
*DATE "Fri May 19 19:07:17 2023"
*VENDOR "AUC CSCE Department"
*PROGRAM "SPEF Extractor"
*VERSION "1.0"
*DESIGN_FLOW "PIN_CAP NONE"
*DIVIDER /
*DELIMITER :
*BUS_DELIMITER []
*T_UNIT 1.00000 NS
*C_UNIT 1.00000 PF
*R_UNIT 1.00000 OHM
*L_UNIT 1.00000 HENRY


*NAME_MAP
*0 clk
*1 p
*2 rst
*3 x[0]
*4 x[10]
*5 x[11]
*6 x[12]
*7 x[13]
*8 x[14]
*9 x[15]
*10 x[16]
*11 x[17]
*12 x[18]
*13 x[19]
*14 x[1]
*15 x[20]
*16 x[21]
*17 x[22]
*18 x[23]
*19 x[24]
*20 x[25]
*21 x[26]
*22 x[27]
*23 x[28]
*24 x[29]
*25 x[2]
*26 x[30]
*27 x[31]
*28 x[3]
*29 x[4]
*30 x[5]
*31 x[6]
*32 x[7]
*33 x[8]
*34 x[9]
*35 y
*36 _000_
*37 _001_
*38 _002_
*39 _003_
*40 _004_
*41 _005_
*42 _006_
*43 _007_
*44 _008_
*45 _009_
*46 _010_
*47 _011_
*48 _012_
*49 _013_
*50 _014_
*51 _015_
*52 _016_
*53 _017_
*54 _018_
*55 _019_
*56 _020_
*57 _021_
*58 _022_
*59 _023_
*60 _024_
*61 _025_
*62 _026_
*63 _027_
*64 _028_
*65 _029_
*66 _030_
*67 _031_
*68 _032_
*69 _033_
*70 _034_
*71 _035_
*72 _036_
*73 _037_
*74 _038_
*75 _039_
*76 _040_
*77 _041_
*78 _042_
*79 _043_
*80 _044_
*81 _045_
*82 _046_
*83 _047_
*84 _048_
*85 _049_
*86 _050_
*87 _051_
*88 _052_
*89 _053_
*90 _054_
*91 _055_
*92 _056_
*93 _057_
*94 _058_
*95 _059_
*96 _060_
*97 _061_
*98 _062_
*99 _063_
*100 _064_
*101 _065_
*102 _066_
*103 _067_
*104 _068_
*105 _069_
*106 _070_
*107 _071_
*108 _072_
*109 _073_
*110 _074_
*111 _075_
*112 _076_
*113 _077_
*114 _078_
*115 _079_
*116 _080_
*117 _081_
*118 _082_
*119 _083_
*120 _084_
*121 _085_
*122 _086_
*123 _087_
*124 _088_
*125 _089_
*126 _090_
*127 _091_
*128 _092_
*129 _093_
*130 _094_
*131 _095_
*132 _096_
*133 _097_
*134 _098_
*135 _099_
*136 _100_
*137 _101_
*138 _102_
*139 _103_
*140 _104_
*141 _105_
*142 _106_
*143 _107_
*144 _108_
*145 _109_
*146 _110_
*147 _111_
*148 _112_
*149 _113_
*150 _114_
*151 _115_
*152 _116_
*153 _117_
*154 _118_
*155 _119_
*156 _120_
*157 _121_
*158 _122_
*159 _123_
*160 _124_
*161 _125_
*162 _126_
*163 _127_
*164 _128_
*165 _129_
*166 _130_
*167 _131_
*168 _132_
*169 _133_
*170 _134_
*171 _135_
*172 _136_
*173 _137_
*174 _138_
*175 _139_
*176 _140_
*177 _141_
*178 _142_
*179 _143_
*180 _144_
*181 _145_
*182 _146_
*183 _147_
*184 _148_
*185 _149_
*186 _150_
*187 _151_
*188 _152_
*189 _153_
*190 _154_
*191 _155_
*192 _156_
*193 _157_
*194 _158_
*195 _159_
*196 _160_
*197 _161_
*198 _162_
*199 _163_
*200 _164_
*201 _165_
*202 _166_
*203 _167_
*204 _168_
*205 _169_
*206 _170_
*207 _171_
*208 _172_
*209 _173_
*210 _174_
*211 _175_
*212 _176_
*213 _177_
*214 _178_
*215 _179_
*216 _180_
*217 _181_
*218 _182_
*219 _183_
*220 _184_
*221 _185_
*222 _186_
*223 _187_
*224 _188_
*225 _189_
*226 _190_
*227 _191_
*228 _192_
*229 _193_
*230 _194_
*231 _195_
*232 _196_
*233 _197_
*234 _198_
*235 _199_
*236 _200_
*237 _201_
*238 _202_
*239 _203_
*240 _204_
*241 _205_
*242 _206_
*243 _207_
*244 _208_
*245 _209_
*246 _210_
*247 _211_
*248 _212_
*249 _213_
*250 _214_
*251 _215_
*252 _216_
*253 _217_
*254 _218_
*255 _219_
*256 _220_
*257 _221_
*258 _222_
*259 _223_
*260 _224_
*261 _225_
*262 _226_
*263 _227_
*264 _228_
*265 _229_
*266 _230_
*267 _231_
*268 _232_
*269 _233_
*270 _234_
*271 _235_
*272 _236_
*273 _237_
*274 _238_
*275 _239_
*276 _240_
*277 _241_
*278 csa0.hsum2
*279 csa0.sc
*280 csa0.y
*281 pp\[10\]
*282 pp\[11\]
*283 pp\[12\]
*284 pp\[13\]
*285 pp\[14\]
*286 pp\[15\]
*287 pp\[16\]
*288 pp\[17\]
*289 pp\[18\]
*290 pp\[19\]
*291 pp\[20\]
*292 pp\[21\]
*293 pp\[22\]
*294 pp\[23\]
*295 pp\[24\]
*296 pp\[25\]
*297 pp\[26\]
*298 pp\[27\]
*299 pp\[28\]
*300 pp\[29\]
*301 pp\[2\]
*302 pp\[30\]
*303 pp\[3\]
*304 pp\[4\]
*305 pp\[5\]
*306 pp\[6\]
*307 pp\[7\]
*308 pp\[8\]
*309 pp\[9\]
*310 tcmp.s
*311 tcmp.z
*312 net1
*313 net2
*314 net3
*315 net4
*316 net5
*317 net6
*318 net7
*319 net8
*320 net9
*321 net10
*322 net11
*323 net12
*324 net13
*325 net14
*326 net15
*327 net16
*328 net17
*329 net18
*330 net19
*331 net20
*332 net21
*333 net22
*334 net23
*335 net24
*336 net25
*337 net26
*338 net27
*339 net28
*340 net29
*341 net30
*342 net31
*343 net32
*344 net33
*345 net34
*346 net35
*347 clknet_0_clk
*348 clknet_1_0_0_clk
*349 clknet_1_1_0_clk
*350 clknet_2_0_0_clk
*351 clknet_2_1_0_clk
*352 clknet_2_2_0_clk
*353 clknet_2_3_0_clk
*354 clknet_3_0_0_clk
*355 clknet_3_1_0_clk
*356 clknet_3_2_0_clk
*357 clknet_3_3_0_clk
*358 clknet_3_4_0_clk
*359 clknet_3_5_0_clk
*360 clknet_3_6_0_clk
*361 clknet_3_7_0_clk

*D_NET *0 0.0067716319358799995
*CONN
*P clk I
*I clkbuf_0_clk:A I
*CAP
0 *0:1 0.00012974410066
1 *0:3 0.00028423114272
2 *0:4 4.017137184e-05
3 *0:5 0.00121979359776
4 *0:7 2.3813806740000006e-05
5 *0:8 4.640188412000001e-05
6 *0:9 7.67789537e-05
7 *0:11 4.017137184e-05
8 *0:12 0.0004791399875199999
9 *0:14 0.00260586472104
10 *0:16 0.0003621946806399999
11 *0:17 0.0014633263173
12 *0:6 0
13 *0:13 0
14 clkbuf_0_clk:A 0
*RES
0 *0:1 *0:2 1.3660714285714284
1 *0:3 *0:4 2.875
2 *0:4 *0:5 0.30357142857142855
3 *0:5 *0:6 12.732142857142856
4 *0:7 *0:8 0.15178571428571427
5 *0:8 *0:9 0.4107142857142857
6 *0:9 *0:10 0.7589285714285713
7 *0:11 *0:12 0.30357142857142855
8 *0:12 *0:13 4.928571428571428
9 *0:14 *0:15 29.749999999999996
10 *0:16 clkbuf_0_clk:A 3.6964285714285707
11 *0:17 *0:18 2.6304333333333334
12 *0:1 *0:18 0
13 *0:3 *0:2 0
14 *0:6 *0:7 0
15 *0:11 *0:10 0
16 *0:13 *0:14 0
17 *0:16 *0:15 0
18 clkbuf_0_clk:A clkbuf_0_clk:A 0
*END

*D_NET *1 0.00063291299678
*CONN
*P p O
*I output35:X O
*CAP
15 *1:1 0.00063291299678
16 output35:X 0
*RES
19 *1:1 *1:2 7.133928571428571
20 output35:X output35:X 0
21 output35:X *1:1 0
*END

*D_NET *2 0.0018163986109800002
*CONN
*P rst I
*I input1:A I
*CAP
17 *2:1 4.017137184e-05
18 *2:2 0.0007123607172200001
19 *2:4 0.0010638665219200002
20 input1:A 0
*RES
22 *2:1 input1:A 0.30357142857142855
23 *2:2 *2:3 8.044642857142856
24 *2:4 *2:1 11.089285714285714
25 input1:A input1:A 0
26 *2:4 *2:2 0
*END

*D_NET *3 0.0006205716796799999
*CONN
*P x[0] I
*I input2:A I
*CAP
21 *3:1 0.0005173101524999999
22 *3:3 0.00010326152718000001
23 *3:4 0
24 input2:A 0
*RES
27 *3:1 *3:2 0.9008333333333334
28 *3:3 *3:4 1.0624999999999998
29 *3:4 *3:2 0
30 input2:A input2:A 0
31 input2:A *3:3 0
*END

*D_NET *4 0.00191661229534
*CONN
*P x[10] I
*I input3:A I
*CAP
25 *4:1 0.0007909941392
26 *4:2 6.898398368e-05
27 *4:3 0.00105663417246
28 input3:A 0
*RES
32 *4:1 *4:2 8.214285714285714
33 *4:2 input3:A 0.6071428571428571
34 *4:3 *4:4 11.991071428571427
35 *4:1 *4:4 0
36 input3:A input3:A 0
*END

*D_NET *5 0.00046290231888
*CONN
*P x[11] I
*I input4:A I
*CAP
29 *5:1 0.0003596407917
30 *5:3 0.00010326152718000001
31 input4:A 0
*RES
37 *5:1 *5:2 0.6125666666666667
38 *5:3 *5:4 1.0624999999999998
39 *5:3 *5:2 0
40 input4:A input4:A 0
41 input4:A *5:4 0
*END

*D_NET *6 0.0020752876157000004
*CONN
*P x[12] I
*I input5:A I
*CAP
32 input5:A 4.017137184e-05
33 *6:2 0.0013757206736000002
34 *6:3 0.00065939557026
*RES
42 input5:A *6:1 0.30357142857142855
43 *6:2 *6:1 14.375
44 *6:3 *6:4 7.437499999999999
45 input5:A input5:A 0
46 *6:2 *6:3 0
*END

*D_NET *7 0.00274180450026
*CONN
*P x[13] I
*I input6:A I
*CAP
35 *7:1 0.0011820014316800001
36 *7:3 0.00155980306858
37 input6:A 0
38 *7:2 0
*RES
47 *7:1 input6:A 0.30357142857142855
48 *7:1 *7:2 11.910714285714285
49 *7:3 *7:4 17.75892857142857
50 input6:A input6:A 0
51 *7:2 *7:3 0
*END

*D_NET *8 0.0014283596835400001
*CONN
*P x[14] I
*I input7:A I
*CAP
39 input7:A 0.00055710352544
40 *8:2 0.0008712561581000002
41 *8:1 0
*RES
52 input7:A *8:1 5.75
53 *8:2 *8:3 9.866071428571429
54 input7:A input7:A 0
55 *8:1 *8:2 0
*END

*D_NET *9 0.00202614928098
*CONN
*P x[15] I
*I input8:A I
*CAP
42 *9:1 0.0015068379216200002
43 input8:A 4.017137184e-05
44 *9:3 0.0004791399875199999
45 *9:4 0
*RES
56 *9:1 *9:2 17.15178571428571
57 input8:A *9:3 0.30357142857142855
58 *9:3 *9:4 4.928571428571428
59 *9:4 *9:1 0
60 input8:A input8:A 0
*END

*D_NET *10 0.0007535975871199999
*CONN
*P x[16] I
*I input9:A I
*CAP
46 *10:1 0.00043847547209999995
47 *10:3 0.00031512211502
48 *10:4 0
49 input9:A 0
*RES
61 *10:1 *10:2 0.7567
62 *10:3 *10:4 3.4910714285714284
63 *10:4 *10:2 0
64 input9:A input9:A 0
65 input9:A *10:3 0
*END

*D_NET *11 0.00118246648876
*CONN
*P x[17] I
*I input10:A I
*CAP
50 *11:1 0.00010326152718000001
51 input10:A 0.00012830406688
52 *11:4 0.0009509008947
53 *11:3 0
54 *11:2 0
*RES
66 *11:1 *11:2 1.0624999999999998
67 input10:A *11:3 1.232142857142857
68 *11:4 *11:5 1.6935666666666669
69 input10:A input10:A 0
70 *11:3 *11:1 0
71 *11:2 *11:5 0
*END

*D_NET *12 0.00114402899746
*CONN
*P x[18] I
*I input11:A I
*CAP
55 input11:A 0.00040117644959999997
56 *12:2 5.029638022e-05
57 *12:3 4.640188412000001e-05
58 *12:4 0.00064615428352
59 *12:1 0
*RES
72 input11:A *12:1 4.107142857142857
73 *12:2 *12:3 0.45535714285714285
74 *12:3 *12:4 0.4107142857142857
75 *12:4 *12:5 7.285714285714286
76 input11:A input11:A 0
77 *12:1 *12:2 0
*END

*D_NET *13 0.0019437331954999999
*CONN
*P x[19] I
*I input12:A I
*CAP
60 *13:1 0.00063506706336
61 *13:2 4.017137184e-05
62 *13:3 0.0012684947603
63 input12:A 0
*RES
78 *13:1 *13:2 6.571428571428571
79 *13:2 input12:A 0.30357142857142855
80 *13:3 *13:4 14.419642857142854
81 *13:1 *13:4 0
82 input12:A input12:A 0
*END

*D_NET *14 0.0010480728243800002
*CONN
*P x[1] I
*I input13:A I
*CAP
64 *14:1 0.0006858781437400002
65 input13:A 0.0003621946806399999
66 *14:3 0
*RES
83 *14:1 *14:2 7.741071428571428
84 input13:A *14:3 3.6964285714285707
85 *14:3 *14:2 0
86 input13:A input13:A 0
*END

*D_NET *15 0.00199966739276
*CONN
*P x[20] I
*I input14:A I
*CAP
67 *15:1 0.00024524937376
68 *15:2 0.0011479875956999998
69 *15:4 0.0006064304233
70 input14:A 0
*RES
87 *15:1 input14:A 2.464285714285714
88 *15:2 *15:3 2.0539
89 *15:4 *15:5 6.830357142857142
90 *15:1 *15:5 0
91 input14:A input14:A 0
92 *15:4 *15:2 0
*END

*D_NET *16 0.0011989216173400002
*CONN
*P x[21] I
*I input15:A I
*CAP
71 *16:1 8.932229792e-05
72 *16:2 0.0011095993194200002
73 input15:A 0
*RES
93 *16:1 input15:A 0.8214285714285714
94 *16:2 *16:3 12.598214285714285
95 *16:1 *16:3 0
96 input15:A input15:A 0
*END

*D_NET *17 0.0009995602249800002
*CONN
*P x[22] I
*I input16:A I
*CAP
74 input16:A 0.00012830406688
75 *17:2 0.0008712561581000002
76 *17:1 0
*RES
97 input16:A *17:1 1.232142857142857
98 *17:2 *17:3 9.866071428571429
99 *17:1 *17:3 0
100 input16:A input16:A 0
*END

*D_NET *18 0.0010701623888
*CONN
*P x[23] I
*I input17:A I
*CAP
77 *18:1 0.00047401755590000005
78 *18:3 0.0005961448329
79 input17:A 0
80 *18:2 0
*RES
101 *18:1 *18:2 5.3125
102 *18:3 *18:4 1.0449666666666666
103 input17:A input17:A 0
104 input17:A *18:1 0
105 *18:2 *18:3 0
*END

*D_NET *19 0.00050231965908
*CONN
*P x[24] I
*I input18:A I
*CAP
81 *19:1 0.00039905813189999997
82 *19:3 0.00010326152718000001
83 input18:A 0
*RES
106 *19:1 *19:2 0.6846333333333334
107 *19:3 *19:4 1.0624999999999998
108 *19:3 *19:2 0
109 input18:A input18:A 0
110 input18:A *19:4 0
*END

*D_NET *20 0.00138937791458
*CONN
*P x[25] I
*I input19:A I
*CAP
84 *20:1 0.0008712561581000002
85 *20:3 0.0005181217564799999
86 input19:A 0
*RES
111 *20:1 *20:2 9.866071428571429
112 *20:3 input19:A 5.339285714285714
113 *20:3 *20:2 0
114 input19:A input19:A 0
*END

*D_NET *21 0.0018757352398
*CONN
*P x[26] I
*I input20:A I
*CAP
87 *21:1 0.0008720662143000001
88 *21:3 0.0010036690255000001
89 input20:A 0
*RES
115 *21:1 *21:2 1.5494333333333334
116 *21:3 *21:4 11.383928571428571
117 *21:3 *21:1 0
118 input20:A input20:A 0
119 input20:A *21:4 0
*END

*D_NET *22 0.00064644121312
*CONN
*P x[27] I
*I input21:A I
*CAP
90 *22:1 5.029638022e-05
91 *22:3 0.0005961448329
92 *22:2 0
93 input21:A 0
*RES
120 *22:1 *22:2 0.45535714285714285
121 *22:3 *22:4 1.0449666666666666
122 *22:2 *22:3 0
123 input21:A input21:A 0
124 input21:A *22:1 0
*END

*D_NET *23 0.00114961010924
*CONN
*P x[28] I
*I input22:A I
*CAP
94 *23:1 0.00055346527634
95 *23:3 0.0005961448329
96 input22:A 0
*RES
125 *23:1 *23:2 6.223214285714285
126 *23:3 *23:4 1.0449666666666666
127 input22:A input22:A 0
128 input22:A *23:2 0
129 *23:1 *23:3 0
*END

*D_NET *24 0.0021033383728200003
*CONN
*P x[29] I
*I input23:A I
*CAP
97 *24:1 6.353766696000002e-05
98 *24:2 4.640188412000001e-05
99 *24:4 8.932229792e-05
100 *24:3 0.0019040765238200002
101 input23:A 0
*RES
130 *24:1 *24:2 0.6071428571428571
131 *24:2 *24:3 0.4107142857142857
132 *24:4 input23:A 0.8214285714285714
133 *24:3 *24:5 21.70535714285714
134 *24:4 *24:5 0
135 input23:A input23:A 0
*END

*D_NET *25 0.00141259754338
*CONN
*P x[2] I
*I input24:A I
*CAP
102 input24:A 4.017137184e-05
103 *25:2 0.00071303060128
104 *25:3 0.00065939557026
*RES
136 input24:A *25:1 0.30357142857142855
137 *25:2 *25:1 7.3928571428571415
138 *25:3 *25:4 7.437499999999999
139 input24:A input24:A 0
140 *25:2 *25:3 0
*END

*D_NET *26 0.00155506693786
*CONN
*P x[30] I
*I input25:A I
*CAP
105 *26:1 0.0002753982548
106 *26:3 0.0011123828472200002
107 *26:4 0.00016728583584
108 input25:A 0
*RES
141 *26:1 *26:2 3.035714285714285
142 *26:3 *26:2 0.8214285714285714
143 *26:4 input25:A 1.6428571428571428
144 *26:3 *26:5 11.687499999999998
145 *26:4 *26:5 0
146 input25:A input25:A 0
*END

*D_NET *27 0.0018080208073800001
*CONN
*P x[31] I
*I input26:A I
*CAP
109 *27:1 8.932229792e-05
110 *27:2 0.00171869850946
111 input26:A 0
*RES
147 *27:1 input26:A 0.8214285714285714
148 *27:2 *27:3 19.580357142857142
149 input26:A input26:A 0
150 *27:1 *27:2 0
*END

*D_NET *28 0.0006864715933599999
*CONN
*P x[3] I
*I input27:A I
*CAP
112 *28:1 0.0005567274927
113 *28:3 0.00012974410066
114 *28:4 0
115 input27:A 0
*RES
151 *28:1 *28:2 0.9729000000000001
152 *28:3 *28:4 1.3660714285714284
153 *28:4 *28:2 0
154 input27:A input27:A 0
155 input27:A *28:3 0
*END

*D_NET *29 0.0026480877284600006
*CONN
*P x[4] I
*I input28:A I
*CAP
116 *29:1 0.00015388997648
117 *29:2 0.00048725884264
118 *29:4 0.0014473095118200004
119 *29:6 0.0002753982548
120 input28:A 0.00028423114272
121 *29:7 0
*RES
156 *29:1 *29:2 1.6428571428571428
157 *29:2 *29:3 5.4642857142857135
158 *29:4 *29:5 0.4107142857142857
159 *29:6 *29:5 3.035714285714285
160 input28:A *29:7 2.875
161 *29:4 *29:1 15.9375
162 *29:7 *29:6 0
163 input28:A input28:A 0
*END

*D_NET *30 0.0006341194864400001
*CONN
*P x[5] I
*I input29:A I
*CAP
122 *30:1 0.00015622667414000004
123 *30:3 0.0004778928123
124 input29:A 0
*RES
164 *30:1 *30:2 1.669642857142857
165 *30:3 *30:4 0.8287666666666667
166 input29:A input29:A 0
167 input29:A *30:2 0
168 *30:1 *30:3 0
*END

*D_NET *31 0.0012169142525
*CONN
*P x[6] I
*I input30:A I
*CAP
125 input30:A 5.034052896000001e-05
126 *31:2 0.00042105240893999997
127 *31:4 0.0007455213146000001
128 *31:1 0
*RES
169 input30:A *31:1 0.4107142857142857
170 *31:2 *31:3 4.705357142857142
171 *31:4 *31:3 0.4107142857142857
172 *31:4 *31:5 7.892857142857142
173 input30:A input30:A 0
174 *31:1 *31:2 0
*END

*D_NET *32 0.0035440199730200003
*CONN
*P x[7] I
*I input31:A I
*CAP
129 *32:1 0.0005481239712
130 *32:2 6.353766696000002e-05
131 *32:4 0.0010235883361400001
132 *32:5 0.0006752384351999999
133 *32:7 4.017137184e-05
134 *32:8 0.00063506706336
135 *32:10 0.0005582931283199999
136 input31:A 0
137 *32:11 0
*RES
175 *32:1 input31:A 0.6071428571428571
176 *32:2 *32:3 0.6071428571428571
177 *32:4 *32:3 0.4107142857142857
178 *32:5 *32:6 0.30357142857142855
179 *32:5 *32:7 6.571428571428571
180 *32:7 *32:8 0.30357142857142855
181 *32:8 *32:9 6.571428571428571
182 *32:10 *32:9 0.30357142857142855
183 *32:10 *32:11 5.339285714285714
184 *32:1 *32:6 4.928571428571428
185 *32:4 *32:12 11.080357142857142
186 input31:A input31:A 0
187 *32:11 *32:12 0
*END

*D_NET *33 0.00351085610696
*CONN
*P x[8] I
*I input32:A I
*CAP
138 *33:1 0.0016998303585
139 *33:3 0.00105663417246
140 *33:5 0.00061557617888
141 *33:7 6.898398368e-05
142 input32:A 6.983141344e-05
143 *33:4 0
144 *33:6 0
*RES
188 *33:1 *33:2 3.0628333333333337
189 *33:3 *33:4 11.991071428571427
190 *33:5 *33:6 6.366071428571428
191 *33:7 *33:5 0.6071428571428571
192 input32:A *33:7 0.6160714285714285
193 *33:4 *33:1 0
194 *33:6 *33:3 0
195 input32:A input32:A 0
*END

*D_NET *34 0.003054097298100001
*CONN
*P x[9] I
*I input33:A I
*CAP
145 *34:1 0.0007941451353200002
146 *34:3 0.0011762525832600002
147 *34:5 0.0010836995795200002
148 *34:6 0
149 input33:A 0
*RES
196 *34:1 *34:2 8.982142857142856
197 *34:3 *34:2 0.8214285714285714
198 *34:3 *34:4 12.419642857142856
199 *34:5 *34:6 10.267857142857142
200 *34:5 input33:A 0.9107142857142857
201 *34:6 *34:4 0
202 input33:A input33:A 0
*END

*D_NET *35 0.0007362186727000002
*CONN
*P y I
*I input34:A I
*CAP
150 *35:1 0.0006858781437400002
151 *35:3 5.034052896000001e-05
152 input34:A 0
*RES
203 *35:1 *35:2 7.741071428571428
204 *35:3 input34:A 0.4107142857142857
205 *35:3 *35:2 0
206 input34:A input34:A 0
*END

*D_NET *36 0.00037870393071999997
*CONN
*I _477_:D I
*I _369_:X O
*CAP
153 _369_:X 5.034052896000001e-05
154 *36:2 0.00032836340175999997
155 *36:1 0
156 _477_:D 0
*RES
207 _369_:X *36:1 0.4107142857142857
208 *36:2 *36:3 3.642857142857143
209 _369_:X _369_:X 0
210 *36:1 *36:2 0
211 _477_:D _477_:D 0
212 _477_:D *36:3 0
*END

*D_NET *37 0.00027128945428
*CONN
*I _478_:D I
*I _370_:X O
*CAP
157 *37:1 0.00014298538739999998
158 _370_:X 0.00012830406688
159 _478_:D 0
160 *37:3 0
*RES
213 *37:1 *37:2 1.5178571428571426
214 _370_:X *37:3 1.232142857142857
215 _478_:D _478_:D 0
216 _478_:D *37:1 0
217 *37:3 *37:2 0
218 _370_:X _370_:X 0
*END

*D_NET *38 0.00061704709204
*CONN
*I _479_:D I
*I _373_:X O
*CAP
161 _373_:X 5.034052896000001e-05
162 *38:2 0.00056670656308
163 _479_:D 0
164 *38:1 0
*RES
219 _373_:X *38:1 0.4107142857142857
220 *38:2 *38:3 6.374999999999999
221 _479_:D _479_:D 0
222 _479_:D *38:3 0
223 _373_:X _373_:X 0
224 *38:1 *38:2 0
*END

*D_NET *39 0.00019332591635999998
*CONN
*I _480_:D I
*I _374_:X O
*CAP
165 *39:1 0.00014298538739999998
166 _480_:D 5.034052896000001e-05
167 *39:3 0
168 _374_:X 0
*RES
225 *39:1 *39:2 1.5178571428571426
226 _480_:D *39:3 0.4107142857142857
227 *39:3 *39:1 0
228 _374_:X _374_:X 0
229 _374_:X *39:2 0
230 _480_:D _480_:D 0
*END

*D_NET *40 0.0005514832062400001
*CONN
*I _481_:D I
*I _377_:X O
*CAP
169 _481_:D 5.034052896000001e-05
170 *40:2 2.3813806740000006e-05
171 *40:3 4.640188412000001e-05
172 *40:4 0.00034160468850000003
173 *40:6 8.932229792e-05
174 *40:1 0
175 _377_:X 0
*RES
231 _481_:D *40:1 0.4107142857142857
232 *40:2 *40:3 0.15178571428571427
233 *40:3 *40:4 0.4107142857142857
234 *40:4 *40:5 3.7946428571428568
235 *40:6 _377_:X 0.8214285714285714
236 _481_:D _481_:D 0
237 *40:1 *40:2 0
238 *40:6 *40:5 0
239 _377_:X _377_:X 0
*END

*D_NET *41 0.00085601598868
*CONN
*I _482_:D I
*I _378_:X O
*CAP
176 *41:1 0.00014298538739999998
177 _482_:D 0.00071303060128
178 _378_:X 0
179 *41:3 0
*RES
240 *41:1 *41:2 1.5178571428571426
241 _482_:D *41:3 7.3928571428571415
242 _378_:X _378_:X 0
243 _378_:X *41:1 0
244 *41:3 *41:2 0
245 _482_:D _482_:D 0
*END

*D_NET *42 0.00035484597524
*CONN
*I _483_:D I
*I _382_:X O
*CAP
180 *42:1 0.00035484597524
181 _483_:D 0
182 _382_:X 0
*RES
246 *42:1 *42:2 3.946428571428571
247 _483_:D _483_:D 0
248 _483_:D *42:1 0
249 _382_:X _382_:X 0
250 _382_:X *42:2 0
*END

*D_NET *43 0.00041768569967999997
*CONN
*I _484_:D I
*I _383_:X O
*CAP
183 *43:1 8.932229792e-05
184 *43:2 0.00032836340175999997
185 _383_:X 0
186 _484_:D 0
*RES
251 *43:1 _383_:X 0.8214285714285714
252 *43:2 *43:3 3.642857142857143
253 _383_:X _383_:X 0
254 *43:1 *43:3 0
255 _484_:D _484_:D 0
256 _484_:D *43:2 0
*END

*D_NET *44 0.0008075033892799999
*CONN
*I _485_:D I
*I _386_:X O
*CAP
187 _386_:X 0.0004791399875199999
188 *44:2 0.00032836340175999997
189 _485_:D 0
190 *44:1 0
*RES
257 _386_:X *44:1 4.928571428571428
258 *44:2 *44:3 3.642857142857143
259 _485_:D _485_:D 0
260 _485_:D *44:3 0
261 _386_:X _386_:X 0
262 *44:1 *44:2 0
*END

*D_NET *45 0.00041471733464000006
*CONN
*I _486_:D I
*I _387_:X O
*CAP
191 *45:1 0.00016946796088000002
192 _486_:D 0.00024524937376
193 *45:3 0
194 _387_:X 0
*RES
263 *45:1 *45:2 1.8214285714285714
264 _486_:D *45:3 2.464285714285714
265 *45:3 *45:1 0
266 _387_:X _387_:X 0
267 _387_:X *45:2 0
268 _486_:D _486_:D 0
*END

*D_NET *46 0.00036338428352000003
*CONN
*I _487_:D I
*I _390_:X O
*CAP
195 _487_:D 4.017137184e-05
196 _390_:X 0.00032321291168
*RES
269 _487_:D *46:1 0.30357142857142855
270 _390_:X *46:1 3.2857142857142856
271 _487_:D _487_:D 0
272 _390_:X _390_:X 0
*END

*D_NET *47 0.00044416827316
*CONN
*I _488_:D I
*I _391_:X O
*CAP
197 *47:1 8.932229792e-05
198 *47:2 0.00035484597524
199 _391_:X 0
200 _488_:D 0
*RES
273 *47:1 _391_:X 0.8214285714285714
274 *47:2 *47:3 3.946428571428571
275 _391_:X _391_:X 0
276 *47:1 *47:2 0
277 _488_:D _488_:D 0
278 _488_:D *47:3 0
*END

*D_NET *48 0.00036175218768000003
*CONN
*I _489_:D I
*I _394_:X O
*CAP
201 _394_:X 0.00024524937376
202 *48:2 0.00011650281392
203 *48:1 0
204 _489_:D 0
*RES
279 _394_:X *48:1 2.464285714285714
280 *48:2 *48:3 1.2142857142857142
281 _394_:X _394_:X 0
282 *48:1 *48:2 0
283 _489_:D _489_:D 0
284 _489_:D *48:3 0
*END

*D_NET *49 0.00332589997856
*CONN
*I _490_:D I
*I _395_:X O
*CAP
205 *49:1 0.00022243310784000002
206 *49:3 0.0014147024425599998
207 *49:4 4.017137184e-05
208 _395_:X 0.0016485930563200002
209 *49:5 0
210 _490_:D 0
*RES
285 *49:1 *49:2 2.4285714285714284
286 *49:3 *49:4 14.785714285714283
287 *49:4 _490_:D 0.30357142857142855
288 _395_:X *49:5 17.25
289 _395_:X _395_:X 0
290 *49:5 *49:1 0
291 *49:3 *49:2 0
292 _490_:D _490_:D 0
*END

*D_NET *50 0.00032836340175999997
*CONN
*I _491_:D I
*I _398_:X O
*CAP
211 *50:1 0.00032836340175999997
212 _398_:X 0
213 _491_:D 0
*RES
293 *50:1 *50:2 3.642857142857143
294 _398_:X _398_:X 0
295 _398_:X *50:1 0
296 _491_:D _491_:D 0
297 _491_:D *50:2 0
*END

*D_NET *51 0.00053611518908
*CONN
*I _492_:D I
*I _399_:X O
*CAP
214 *51:1 0.0004078111222
215 *51:3 0.00012830406688
216 _399_:X 0
217 _492_:D 0
*RES
298 *51:1 *51:2 4.553571428571428
299 *51:3 _492_:D 1.232142857142857
300 _399_:X _399_:X 0
301 _399_:X *51:1 0
302 *51:3 *51:2 0
303 _492_:D _492_:D 0
*END

*D_NET *52 0.0005221318110799999
*CONN
*I _493_:D I
*I _403_:X O
*CAP
218 *52:1 0.00016728583584
219 *52:2 0.00035484597524
220 _493_:D 0
221 _403_:X 0
*RES
304 *52:1 _493_:D 1.6428571428571428
305 *52:2 *52:3 3.946428571428571
306 _493_:D _493_:D 0
307 *52:1 *52:2 0
308 _403_:X _403_:X 0
309 _403_:X *52:3 0
*END

*D_NET *53 0.00028378864976
*CONN
*I _494_:D I
*I _404_:X O
*CAP
222 *53:1 0.00011650281392
223 *53:3 0.00016728583584
224 _494_:D 0
225 _404_:X 0
*RES
310 *53:1 *53:2 1.2142857142857142
311 *53:3 _404_:X 1.6428571428571428
312 _494_:D _494_:D 0
313 _494_:D *53:1 0
314 *53:3 *53:2 0
315 _404_:X _404_:X 0
*END

*D_NET *54 0.0011664842926399999
*CONN
*I _495_:D I
*I _407_:X O
*CAP
226 *54:1 0.0005972748972799999
227 *54:2 0.00016728583584
228 *54:3 4.017137184e-05
229 *54:4 0.00024524937376
230 *54:6 0.00011650281392
231 _495_:D 0
232 _407_:X 0
233 *54:5 0
*RES
316 *54:1 _495_:D 0.30357142857142855
317 *54:2 _407_:X 1.6428571428571428
318 *54:3 *54:4 0.30357142857142855
319 *54:4 *54:5 2.464285714285714
320 *54:1 *54:3 5.75
321 *54:6 *54:7 1.2142857142857142
322 _495_:D _495_:D 0
323 _407_:X _407_:X 0
324 *54:2 *54:6 0
325 *54:5 *54:7 0
*END

*D_NET *55 0.0007464915944
*CONN
*I _496_:D I
*I _408_:X O
*CAP
234 *55:1 0.0002062676048
235 *55:2 0.0005402239896
236 _408_:X 0
237 _496_:D 0
*RES
326 *55:1 _408_:X 2.0535714285714284
327 *55:2 *55:3 6.07142857142857
328 _408_:X _408_:X 0
329 *55:1 *55:2 0
330 _496_:D _496_:D 0
331 _496_:D *55:3 0
*END

*D_NET *56 0.00070008891284
*CONN
*I _459_:D I
*I _330_:X O
*CAP
238 *56:1 0.00055710352544
239 *56:2 0.00014298538739999998
240 _459_:D 0
241 _330_:X 0
*RES
332 *56:1 _459_:D 5.75
333 *56:2 *56:3 1.5178571428571426
334 _459_:D _459_:D 0
335 *56:1 *56:2 0
336 _330_:X _330_:X 0
337 _330_:X *56:3 0
*END

*D_NET *57 0.00092444869616
*CONN
*I _460_:D I
*I _331_:X O
*CAP
242 *57:1 0.00032836340175999997
243 *57:3 0.0005960852944
244 _331_:X 0
245 _460_:D 0
*RES
338 *57:1 *57:2 3.642857142857143
339 *57:3 _460_:D 6.160714285714286
340 _331_:X _331_:X 0
341 _331_:X *57:1 0
342 *57:3 *57:2 0
343 _460_:D _460_:D 0
*END

*D_NET *58 0.00152053399056
*CONN
*I _497_:D I
*I _411_:X O
*CAP
246 *58:1 0.0010638665219200002
247 *58:2 0.00032836340175999997
248 _497_:D 0.00012830406688
249 _411_:X 0
250 *58:4 0
*RES
344 *58:1 _411_:X 11.089285714285714
345 *58:2 *58:3 3.642857142857143
346 _497_:D *58:4 1.232142857142857
347 _411_:X _411_:X 0
348 *58:1 *58:2 0
349 *58:4 *58:3 0
350 _497_:D _497_:D 0
*END

*D_NET *59 0.00058314360596
*CONN
*I _498_:D I
*I _412_:X O
*CAP
251 *59:1 0.00014298538739999998
252 *59:3 0.00044015821855999997
253 _498_:D 0
254 _412_:X 0
*RES
351 *59:1 *59:2 1.5178571428571426
352 *59:3 _412_:X 4.517857142857142
353 _498_:D _498_:D 0
354 _498_:D *59:1 0
355 *59:3 *59:2 0
356 _412_:X _412_:X 0
*END

*D_NET *60 0.0011068583454800001
*CONN
*I _499_:D I
*I _415_:X O
*CAP
255 *60:1 0.00035484597524
256 _415_:X 0.00075201237024
257 _499_:D 0
258 *60:3 0
*RES
357 *60:1 *60:2 3.946428571428571
358 _415_:X *60:3 7.803571428571428
359 _499_:D _499_:D 0
360 _499_:D *60:1 0
361 *60:3 *60:2 0
362 _415_:X _415_:X 0
*END

*D_NET *61 0.00021718387184
*CONN
*I _500_:D I
*I _416_:X O
*CAP
259 _416_:X 5.034052896000001e-05
260 *61:2 5.034052896000001e-05
261 *61:3 0.00011650281392
262 *61:1 0
263 _500_:D 0
*RES
363 _416_:X *61:1 0.4107142857142857
364 *61:2 _500_:D 0.4107142857142857
365 *61:3 *61:4 1.2142857142857142
366 _416_:X _416_:X 0
367 *61:1 *61:3 0
368 *61:2 *61:4 0
369 _500_:D _500_:D 0
*END

*D_NET *62 0.00014586906284000002
*CONN
*I _501_:D I
*I _419_:X O
*CAP
264 *62:1 9.002024044000002e-05
265 _501_:D 5.58488224e-05
266 *62:3 0
267 _419_:X 0
*RES
370 *62:1 *62:2 0.9107142857142857
371 _501_:D *62:3 0.46875
372 *62:3 *62:1 0
373 _419_:X _419_:X 0
374 _419_:X *62:2 0
375 _501_:D _501_:D 0
*END

*D_NET *63 0.00011650281392
*CONN
*I _502_:D I
*I _420_:X O
*CAP
268 *63:1 0.00011650281392
269 _502_:D 0
270 _420_:X 0
*RES
376 *63:1 *63:2 1.2142857142857142
377 _502_:D _502_:D 0
378 _502_:D *63:1 0
379 _420_:X _420_:X 0
380 _420_:X *63:2 0
*END

*D_NET *64 0.0005441618369999999
*CONN
*I _503_:D I
*I _424_:X O
*CAP
271 *64:1 0.00040117644959999997
272 *64:2 0.00014298538739999998
273 _424_:X 0
274 _503_:D 0
*RES
381 *64:1 _424_:X 4.107142857142857
382 *64:2 *64:3 1.5178571428571426
383 _424_:X _424_:X 0
384 *64:1 *64:2 0
385 _503_:D _503_:D 0
386 _503_:D *64:3 0
*END

*D_NET *65 0.0004621609083200001
*CONN
*I _504_:D I
*I _425_:X O
*CAP
275 _504_:D 5.034052896000001e-05
276 *65:2 6.353766696000002e-05
277 *65:3 4.640188412000001e-05
278 *65:4 0.00030188082828000006
279 *65:1 0
280 _425_:X 0
*RES
387 _504_:D *65:1 0.4107142857142857
388 *65:2 *65:3 0.6071428571428571
389 *65:3 *65:4 0.4107142857142857
390 *65:4 *65:5 3.339285714285714
391 _504_:D _504_:D 0
392 *65:1 *65:2 0
393 _425_:X _425_:X 0
394 _425_:X *65:5 0
*END

*D_NET *66 0.00038823476116
*CONN
*I _505_:D I
*I _428_:X O
*CAP
281 _428_:X 0.00024524937376
282 *66:2 0.00014298538739999998
283 *66:1 0
284 _505_:D 0
*RES
395 _428_:X *66:1 2.464285714285714
396 *66:2 *66:3 1.5178571428571426
397 _428_:X _428_:X 0
398 *66:1 *66:2 0
399 _505_:D _505_:D 0
400 _505_:D *66:3 0
*END

*D_NET *67 0.00032277041872
*CONN
*I _506_:D I
*I _429_:X O
*CAP
285 *67:1 0.00011650281392
286 *67:3 0.0002062676048
287 _506_:D 0
288 _429_:X 0
*RES
401 *67:1 *67:2 1.2142857142857142
402 *67:3 _429_:X 2.0535714285714284
403 _506_:D _506_:D 0
404 _506_:D *67:1 0
405 *67:3 *67:2 0
406 _429_:X _429_:X 0
*END

*D_NET *68 0.0004051865042
*CONN
*I _507_:D I
*I _432_:X O
*CAP
289 *68:1 5.034052896000001e-05
290 *68:2 0.00035484597524
291 _432_:X 0
292 _507_:D 0
*RES
407 *68:1 _432_:X 0.4107142857142857
408 *68:2 *68:3 3.946428571428571
409 _432_:X _432_:X 0
410 *68:1 *68:2 0
411 _507_:D _507_:D 0
412 _507_:D *68:3 0
*END

*D_NET *69 0.00048315004212
*CONN
*I _508_:D I
*I _433_:X O
*CAP
293 *69:1 0.00012830406688
294 *69:2 0.00035484597524
295 _433_:X 0
296 _508_:D 0
*RES
413 *69:1 _433_:X 1.232142857142857
414 *69:2 *69:3 3.946428571428571
415 _433_:X _433_:X 0
416 *69:1 *69:2 0
417 _508_:D _508_:D 0
418 _508_:D *69:3 0
*END

*D_NET *70 0.0005441618369999999
*CONN
*I _509_:D I
*I _436_:X O
*CAP
297 *70:1 0.00040117644959999997
298 *70:2 0.00014298538739999998
299 _436_:X 0
300 _509_:D 0
*RES
419 *70:1 _436_:X 4.107142857142857
420 *70:2 *70:3 1.5178571428571426
421 _436_:X _436_:X 0
422 *70:1 *70:2 0
423 _509_:D _509_:D 0
424 _509_:D *70:3 0
*END

*D_NET *71 0.00045666746863999997
*CONN
*I _510_:D I
*I _437_:X O
*CAP
301 *71:1 0.00012830406688
302 *71:2 0.00032836340175999997
303 _437_:X 0
304 _510_:D 0
*RES
425 *71:1 _437_:X 1.232142857142857
426 *71:2 *71:3 3.642857142857143
427 _437_:X _437_:X 0
428 *71:1 *71:2 0
429 _510_:D _510_:D 0
430 _510_:D *71:3 0
*END

*D_NET *72 0.00053463100656
*CONN
*I _511_:D I
*I _440_:X O
*CAP
305 *72:1 0.00032836340175999997
306 *72:3 0.0002062676048
307 _511_:D 0
308 _440_:X 0
*RES
431 *72:1 *72:2 3.642857142857143
432 *72:3 _440_:X 2.0535714285714284
433 _511_:D _511_:D 0
434 _511_:D *72:1 0
435 *72:3 *72:2 0
436 _440_:X _440_:X 0
*END

*D_NET *73 0.0005105276388400001
*CONN
*I _512_:D I
*I _441_:X O
*CAP
309 *73:1 0.0001583062816
310 *73:3 0.00030188082828000006
311 *73:5 5.034052896000001e-05
312 _512_:D 0
313 *73:2 0
314 _441_:X 0
*RES
437 *73:1 _512_:D 0.8214285714285714
438 *73:1 *73:2 0.6071428571428571
439 *73:3 *73:4 3.339285714285714
440 *73:5 _441_:X 0.4107142857142857
441 _512_:D _512_:D 0
442 *73:2 *73:3 0
443 *73:5 *73:4 0
444 _441_:X _441_:X 0
*END

*D_NET *74 0.0010223323421600001
*CONN
*I _513_:D I
*I _444_:X O
*CAP
315 *74:1 0.0006991194304800001
316 *74:3 0.00032321291168
317 _444_:X 0
318 _513_:D 0
*RES
445 *74:1 *74:2 7.892857142857142
446 *74:3 _513_:D 3.2857142857142856
447 _444_:X _444_:X 0
448 _444_:X *74:1 0
449 *74:3 *74:2 0
450 _513_:D _513_:D 0
*END

*D_NET *75 0.00043971572560000003
*CONN
*I _514_:D I
*I _445_:X O
*CAP
319 _445_:X 0.00032321291168
320 *75:2 0.00011650281392
321 *75:1 0
322 _514_:D 0
*RES
451 _445_:X *75:1 3.2857142857142856
452 *75:2 *75:3 1.2142857142857142